Program Version,EnergyPlus, Version 9.6.0-f420c06a69, YMD=2022.07.05 15:12
! This file shows details about the branches, nodes, and other
! elements of the flow connections.
! This file is intended for use in "debugging" potential problems
! that may also be detected by the program, but may be more easily
! identified by "eye".
! This file is also intended to support software which draws a
! schematic diagram of the HVAC system.
! ===============================================================
! #Nodes,<Number of Unique Nodes>
 #Nodes,158
! <Node>,<NodeNumber>,<Node Name>,<Node Fluid Type>,<# Times Node Referenced After Definition>
 Node,1,CORE_BOTTOM VAV BOX OUTLET NODE,Air,4
 Node,2,CORE_MID VAV BOX OUTLET NODE,Air,4
 Node,3,CORE_TOP VAV BOX OUTLET NODE,Air,4
 Node,4,PERIMETER_TOP_ZN_3 VAV BOX OUTLET NODE,Air,4
 Node,5,PERIMETER_TOP_ZN_2 VAV BOX OUTLET NODE,Air,4
 Node,6,PERIMETER_TOP_ZN_1 VAV BOX OUTLET NODE,Air,4
 Node,7,PERIMETER_TOP_ZN_4 VAV BOX OUTLET NODE,Air,4
 Node,8,PERIMETER_BOT_ZN_3 VAV BOX OUTLET NODE,Air,4
 Node,9,PERIMETER_BOT_ZN_2 VAV BOX OUTLET NODE,Air,4
 Node,10,PERIMETER_BOT_ZN_1 VAV BOX OUTLET NODE,Air,4
 Node,11,PERIMETER_BOT_ZN_4 VAV BOX OUTLET NODE,Air,4
 Node,12,PERIMETER_MID_ZN_3 VAV BOX OUTLET NODE,Air,4
 Node,13,PERIMETER_MID_ZN_2 VAV BOX OUTLET NODE,Air,4
 Node,14,PERIMETER_MID_ZN_1 VAV BOX OUTLET NODE,Air,4
 Node,15,PERIMETER_MID_ZN_4 VAV BOX OUTLET NODE,Air,4
 Node,16,PACU_VAV_BOT_OAINLET NODE,Air,3
 Node,17,PACU_VAV_MID_OAINLET NODE,Air,3
 Node,18,PACU_VAV_TOP_OAINLET NODE,Air,3
 Node,19,PACU_VAV_BOT SUPPLY EQUIPMENT INLET NODE,Air,3
 Node,20,PACU_VAV_BOT_OA-PACU_VAV_BOT_COOLCNODE,Air,6
 Node,21,PACU_VAV_BOT_COOLC-PACU_VAV_BOT_HEATCNODE,Air,6
 Node,22,PACU_VAV_BOT_HEATC-PACU_VAV_BOT FANNODE,Air,8
 Node,23,PACU_VAV_BOT SUPPLY EQUIPMENT OUTLET NODE,Air,9
 Node,24,PACU_VAV_MID SUPPLY EQUIPMENT INLET NODE,Air,3
 Node,25,PACU_VAV_MID_OA-PACU_VAV_MID_COOLCNODE,Air,6
 Node,26,PACU_VAV_MID_COOLC-PACU_VAV_MID_HEATCNODE,Air,6
 Node,27,PACU_VAV_MID_HEATC-PACU_VAV_MID FANNODE,Air,8
 Node,28,PACU_VAV_MID SUPPLY EQUIPMENT OUTLET NODE,Air,9
 Node,29,PACU_VAV_TOP SUPPLY EQUIPMENT INLET NODE,Air,3
 Node,30,PACU_VAV_TOP_OA-PACU_VAV_TOP_COOLCNODE,Air,6
 Node,31,PACU_VAV_TOP_COOLC-PACU_VAV_TOP_HEATCNODE,Air,6
 Node,32,PACU_VAV_TOP_HEATC-PACU_VAV_TOP FANNODE,Air,8
 Node,33,PACU_VAV_TOP SUPPLY EQUIPMENT OUTLET NODE,Air,9
 Node,34,SHWSYS1 SUPPLY INLET NODE,Water,2
 Node,35,SHWSYS1 PUMP-SHWSYS1 WATER HEATERNODEVIACONNECTOR,Water,1
 Node,36,SHWSYS1 PUMP-SHWSYS1 WATER HEATERNODE,Water,1
 Node,37,SHWSYS1 SUPPLY EQUIPMENT OUTLET NODE,Water,1
 Node,38,SHWSYS1 SUPPLY EQUIP BYPASS INLET NODE,Water,1
 Node,39,SHWSYS1 SUPPLY EQUIP BYPASS OUTLET NODE,Water,1
 Node,40,SHWSYS1 SUPPLY MIXER-SHWSYS1 SUPPLY OUTLET PIPE,Water,1
 Node,41,SHWSYS1 SUPPLY OUTLET NODE,Water,4
 Node,42,SHWSYS1 DEMAND INLET NODE,Water,2
 Node,43,SHWSYS1 DEMAND INLET PIPE-SHWSYS1 DEMAND MIXER,Water,1
 Node,44,CORE_BOTTOM SUB CAT WATER INLET NODE,Water,1
 Node,45,CORE_BOTTOM SUB CAT WATER OUTLET NODE,Water,1
 Node,46,CORE_MID SUB CAT WATER INLET NODE,Water,1
 Node,47,CORE_MID SUB CAT WATER OUTLET NODE,Water,1
 Node,48,CORE_TOP SUB CAT WATER INLET NODE,Water,1
 Node,49,CORE_TOP SUB CAT WATER OUTLET NODE,Water,1
 Node,50,PERIMETER_TOP_ZN_3 SUB CAT WATER INLET NODE,Water,1
 Node,51,PERIMETER_TOP_ZN_3 SUB CAT WATER OUTLET NODE,Water,1
 Node,52,PERIMETER_TOP_ZN_2 SUB CAT WATER INLET NODE,Water,1
 Node,53,PERIMETER_TOP_ZN_2 SUB CAT WATER OUTLET NODE,Water,1
 Node,54,PERIMETER_TOP_ZN_1 SUB CAT WATER INLET NODE,Water,1
 Node,55,PERIMETER_TOP_ZN_1 SUB CAT WATER OUTLET NODE,Water,1
 Node,56,PERIMETER_TOP_ZN_4 SUB CAT WATER INLET NODE,Water,1
 Node,57,PERIMETER_TOP_ZN_4 SUB CAT WATER OUTLET NODE,Water,1
 Node,58,PERIMETER_BOT_ZN_3 SUB CAT WATER INLET NODE,Water,1
 Node,59,PERIMETER_BOT_ZN_3 SUB CAT WATER OUTLET NODE,Water,1
 Node,60,PERIMETER_BOT_ZN_2 SUB CAT WATER INLET NODE,Water,1
 Node,61,PERIMETER_BOT_ZN_2 SUB CAT WATER OUTLET NODE,Water,1
 Node,62,PERIMETER_BOT_ZN_1 SUB CAT WATER INLET NODE,Water,1
 Node,63,PERIMETER_BOT_ZN_1 SUB CAT WATER OUTLET NODE,Water,1
 Node,64,PERIMETER_BOT_ZN_4 SUB CAT WATER INLET NODE,Water,1
 Node,65,PERIMETER_BOT_ZN_4 SUB CAT WATER OUTLET NODE,Water,1
 Node,66,PERIMETER_MID_ZN_3 SUB CAT WATER INLET NODE,Water,1
 Node,67,PERIMETER_MID_ZN_3 SUB CAT WATER OUTLET NODE,Water,1
 Node,68,PERIMETER_MID_ZN_2 SUB CAT WATER INLET NODE,Water,1
 Node,69,PERIMETER_MID_ZN_2 SUB CAT WATER OUTLET NODE,Water,1
 Node,70,PERIMETER_MID_ZN_1 SUB CAT WATER INLET NODE,Water,1
 Node,71,PERIMETER_MID_ZN_1 SUB CAT WATER OUTLET NODE,Water,1
 Node,72,PERIMETER_MID_ZN_4 SUB CAT WATER INLET NODE,Water,1
 Node,73,PERIMETER_MID_ZN_4 SUB CAT WATER OUTLET NODE,Water,1
 Node,74,SHWSYS1 DEMAND BYPASS PIPE INLET NODE,Water,1
 Node,75,SHWSYS1 DEMAND BYPASS PIPE OUTLET NODE,Water,1
 Node,76,SHWSYS1 DEMAND MIXER-SHWSYS1 DEMAND OUTLET PIPE,Water,1
 Node,77,SHWSYS1 DEMAND OUTLET NODE,Water,2
 Node,78,CORE_BOTTOM AIR NODE,Air,0
 Node,79,CORE_BOTTOM RETURN AIR NODE,Air,1
 Node,80,CORE_MID AIR NODE,Air,0
 Node,81,CORE_MID RETURN AIR NODE,Air,1
 Node,82,CORE_TOP AIR NODE,Air,0
 Node,83,CORE_TOP RETURN AIR NODE,Air,1
 Node,84,PERIMETER_TOP_ZN_3 AIR NODE,Air,0
 Node,85,PERIMETER_TOP_ZN_3 RETURN AIR NODE,Air,1
 Node,86,PERIMETER_TOP_ZN_2 AIR NODE,Air,0
 Node,87,PERIMETER_TOP_ZN_2 RETURN AIR NODE,Air,1
 Node,88,PERIMETER_TOP_ZN_1 AIR NODE,Air,0
 Node,89,PERIMETER_TOP_ZN_1 RETURN AIR NODE,Air,1
 Node,90,PERIMETER_TOP_ZN_4 AIR NODE,Air,0
 Node,91,PERIMETER_TOP_ZN_4 RETURN AIR NODE,Air,1
 Node,92,PERIMETER_BOT_ZN_3 AIR NODE,Air,0
 Node,93,PERIMETER_BOT_ZN_3 RETURN AIR NODE,Air,1
 Node,94,PERIMETER_BOT_ZN_2 AIR NODE,Air,0
 Node,95,PERIMETER_BOT_ZN_2 RETURN AIR NODE,Air,1
 Node,96,PERIMETER_BOT_ZN_1 AIR NODE,Air,0
 Node,97,PERIMETER_BOT_ZN_1 RETURN AIR NODE,Air,1
 Node,98,PERIMETER_BOT_ZN_4 AIR NODE,Air,0
 Node,99,PERIMETER_BOT_ZN_4 RETURN AIR NODE,Air,1
 Node,100,PERIMETER_MID_ZN_3 AIR NODE,Air,0
 Node,101,PERIMETER_MID_ZN_3 RETURN AIR NODE,Air,1
 Node,102,PERIMETER_MID_ZN_2 AIR NODE,Air,0
 Node,103,PERIMETER_MID_ZN_2 RETURN AIR NODE,Air,1
 Node,104,PERIMETER_MID_ZN_1 AIR NODE,Air,0
 Node,105,PERIMETER_MID_ZN_1 RETURN AIR NODE,Air,1
 Node,106,PERIMETER_MID_ZN_4 AIR NODE,Air,0
 Node,107,PERIMETER_MID_ZN_4 RETURN AIR NODE,Air,1
 Node,108,PACU_VAV_BOT ZONE EQUIPMENT INLET NODE,Air,2
 Node,109,PACU_VAV_MID ZONE EQUIPMENT INLET NODE,Air,2
 Node,110,PACU_VAV_TOP ZONE EQUIPMENT INLET NODE,Air,2
 Node,111,PACU_VAV_BOT ZONE EQUIPMENT OUTLET NODE,Air,2
 Node,112,PACU_VAV_MID ZONE EQUIPMENT OUTLET NODE,Air,2
 Node,113,PACU_VAV_TOP ZONE EQUIPMENT OUTLET NODE,Air,2
 Node,114,PACU_VAV_BOT_COOLC COND OA NODE,Air,0
 Node,115,PACU_VAV_BOT_COOLCOA REF NODE,Air,0
 Node,116,PACU_VAV_MID_COOLC COND OA NODE,Air,0
 Node,117,PACU_VAV_MID_COOLCOA REF NODE,Air,0
 Node,118,PACU_VAV_TOP_COOLC COND OA NODE,Air,0
 Node,119,PACU_VAV_TOP_COOLCOA REF NODE,Air,0
 Node,120,CORE_BOTTOM VAV BOX INLET NODE,Air,1
 Node,121,PERIMETER_BOT_ZN_3 VAV BOX INLET NODE,Air,1
 Node,122,PERIMETER_BOT_ZN_2 VAV BOX INLET NODE,Air,1
 Node,123,PERIMETER_BOT_ZN_1 VAV BOX INLET NODE,Air,1
 Node,124,PERIMETER_BOT_ZN_4 VAV BOX INLET NODE,Air,1
 Node,125,CORE_MID VAV BOX INLET NODE,Air,1
 Node,126,PERIMETER_MID_ZN_3 VAV BOX INLET NODE,Air,1
 Node,127,PERIMETER_MID_ZN_2 VAV BOX INLET NODE,Air,1
 Node,128,PERIMETER_MID_ZN_1 VAV BOX INLET NODE,Air,1
 Node,129,PERIMETER_MID_ZN_4 VAV BOX INLET NODE,Air,1
 Node,130,CORE_TOP VAV BOX INLET NODE,Air,1
 Node,131,PERIMETER_TOP_ZN_3 VAV BOX INLET NODE,Air,1
 Node,132,PERIMETER_TOP_ZN_2 VAV BOX INLET NODE,Air,1
 Node,133,PERIMETER_TOP_ZN_1 VAV BOX INLET NODE,Air,1
 Node,134,PERIMETER_TOP_ZN_4 VAV BOX INLET NODE,Air,1
 Node,135,CORE_BOTTOM VAV BOX DAMPER NODE,Air,1
 Node,136,CORE_MID VAV BOX DAMPER NODE,Air,1
 Node,137,CORE_TOP VAV BOX DAMPER NODE,Air,1
 Node,138,PERIMETER_TOP_ZN_3 VAV BOX DAMPER NODE,Air,1
 Node,139,PERIMETER_TOP_ZN_2 VAV BOX DAMPER NODE,Air,1
 Node,140,PERIMETER_TOP_ZN_1 VAV BOX DAMPER NODE,Air,1
 Node,141,PERIMETER_TOP_ZN_4 VAV BOX DAMPER NODE,Air,1
 Node,142,PERIMETER_BOT_ZN_3 VAV BOX DAMPER NODE,Air,1
 Node,143,PERIMETER_BOT_ZN_2 VAV BOX DAMPER NODE,Air,1
 Node,144,PERIMETER_BOT_ZN_1 VAV BOX DAMPER NODE,Air,1
 Node,145,PERIMETER_BOT_ZN_4 VAV BOX DAMPER NODE,Air,1
 Node,146,PERIMETER_MID_ZN_3 VAV BOX DAMPER NODE,Air,1
 Node,147,PERIMETER_MID_ZN_2 VAV BOX DAMPER NODE,Air,1
 Node,148,PERIMETER_MID_ZN_1 VAV BOX DAMPER NODE,Air,1
 Node,149,PERIMETER_MID_ZN_4 VAV BOX DAMPER NODE,Air,1
 Node,150,FIRSTFLOOR_PLENUM NODE,Air,0
 Node,151,FIRSTFLOOR_PLENUM OUTLET NODE,Air,1
 Node,152,MIDFLOOR_PLENUM NODE,Air,0
 Node,153,MIDFLOOR_PLENUM OUTLET NODE,Air,1
 Node,154,TOPFLOOR_PLENUM NODE,Air,0
 Node,155,TOPFLOOR_PLENUM OUTLET NODE,Air,1
 Node,156,PACU_VAV_BOT_OARELIEF NODE,Air,1
 Node,157,PACU_VAV_MID_OARELIEF NODE,Air,1
 Node,158,PACU_VAV_TOP_OARELIEF NODE,Air,1
! ===============================================================
! Suspicious nodes have 0 references.  It is normal for some nodes, however.
! Listing nodes with 0 references (culled from previous list):
! <Suspicious Node>,<NodeNumber>,<Node Name>,<Node Fluid Type>,<# Times Node Referenced After Definition>
 Suspicious Node,78,CORE_BOTTOM AIR NODE,Air,0
 Suspicious Node,80,CORE_MID AIR NODE,Air,0
 Suspicious Node,82,CORE_TOP AIR NODE,Air,0
 Suspicious Node,84,PERIMETER_TOP_ZN_3 AIR NODE,Air,0
 Suspicious Node,86,PERIMETER_TOP_ZN_2 AIR NODE,Air,0
 Suspicious Node,88,PERIMETER_TOP_ZN_1 AIR NODE,Air,0
 Suspicious Node,90,PERIMETER_TOP_ZN_4 AIR NODE,Air,0
 Suspicious Node,92,PERIMETER_BOT_ZN_3 AIR NODE,Air,0
 Suspicious Node,94,PERIMETER_BOT_ZN_2 AIR NODE,Air,0
 Suspicious Node,96,PERIMETER_BOT_ZN_1 AIR NODE,Air,0
 Suspicious Node,98,PERIMETER_BOT_ZN_4 AIR NODE,Air,0
 Suspicious Node,100,PERIMETER_MID_ZN_3 AIR NODE,Air,0
 Suspicious Node,102,PERIMETER_MID_ZN_2 AIR NODE,Air,0
 Suspicious Node,104,PERIMETER_MID_ZN_1 AIR NODE,Air,0
 Suspicious Node,106,PERIMETER_MID_ZN_4 AIR NODE,Air,0
 Suspicious Node,114,PACU_VAV_BOT_COOLC COND OA NODE,Air,0
 Suspicious Node,115,PACU_VAV_BOT_COOLCOA REF NODE,Air,0
 Suspicious Node,116,PACU_VAV_MID_COOLC COND OA NODE,Air,0
 Suspicious Node,117,PACU_VAV_MID_COOLCOA REF NODE,Air,0
 Suspicious Node,118,PACU_VAV_TOP_COOLC COND OA NODE,Air,0
 Suspicious Node,119,PACU_VAV_TOP_COOLCOA REF NODE,Air,0
 Suspicious Node,150,FIRSTFLOOR_PLENUM NODE,Air,0
 Suspicious Node,152,MIDFLOOR_PLENUM NODE,Air,0
 Suspicious Node,154,TOPFLOOR_PLENUM NODE,Air,0
! ===============================================================
! <#Branch Lists>,<Number of Branch Lists>
 #Branch Lists,5
! <Branch List>,<Branch List Count>,<Branch List Name>,<Loop Name>,<Loop Type>,<Number of Branches>
! <Branch>,<Branch Count>,<Branch Name>,<Loop Name>,<Loop Type>,<Branch Inlet Node Name>,<Branch Outlet Node Name>
 Branch List,1,PACU_VAV_BOT AIR LOOP BRANCHES,PACU_VAV_BOT,Air,1
   Branch,1,PACU_VAV_BOT AIR LOOP MAIN BRANCH,PACU_VAV_BOT,Air,PACU_VAV_BOT SUPPLY EQUIPMENT INLET NODE,PACU_VAV_BOT SUPPLY EQUIPMENT OUTLET NODE
 Branch List,2,PACU_VAV_MID AIR LOOP BRANCHES,PACU_VAV_MID,Air,1
   Branch,1,PACU_VAV_MID AIR LOOP MAIN BRANCH,PACU_VAV_MID,Air,PACU_VAV_MID SUPPLY EQUIPMENT INLET NODE,PACU_VAV_MID SUPPLY EQUIPMENT OUTLET NODE
 Branch List,3,PACU_VAV_TOP AIR LOOP BRANCHES,PACU_VAV_TOP,Air,1
   Branch,1,PACU_VAV_TOP AIR LOOP MAIN BRANCH,PACU_VAV_TOP,Air,PACU_VAV_TOP SUPPLY EQUIPMENT INLET NODE,PACU_VAV_TOP SUPPLY EQUIPMENT OUTLET NODE
 Branch List,4,SHWSYS1 SUPPLY BRANCHES,SHWSYS1,Plant Supply,4
   Branch,1,SHWSYS1 SUPPLY INLET BRANCH,SHWSYS1,Plant Supply,SHWSYS1 SUPPLY INLET NODE,SHWSYS1 PUMP-SHWSYS1 WATER HEATERNODEVIACONNECTOR
   Branch,2,SHWSYS1 SUPPLY EQUIPMENT BRANCH,SHWSYS1,Plant Supply,SHWSYS1 PUMP-SHWSYS1 WATER HEATERNODE,SHWSYS1 SUPPLY EQUIPMENT OUTLET NODE
   Branch,3,SHWSYS1 SUPPLY EQUIPMENT BYPASS BRANCH,SHWSYS1,Plant Supply,SHWSYS1 SUPPLY EQUIP BYPASS INLET NODE,SHWSYS1 SUPPLY EQUIP BYPASS OUTLET NODE
   Branch,4,SHWSYS1 SUPPLY OUTLET BRANCH,SHWSYS1,Plant Supply,SHWSYS1 SUPPLY MIXER-SHWSYS1 SUPPLY OUTLET PIPE,SHWSYS1 SUPPLY OUTLET NODE
 Branch List,5,SHWSYS1 DEMAND BRANCHES,SHWSYS1,Plant Demand,18
   Branch,1,SHWSYS1 DEMAND INLET BRANCH,SHWSYS1,Plant Demand,SHWSYS1 DEMAND INLET NODE,SHWSYS1 DEMAND INLET PIPE-SHWSYS1 DEMAND MIXER
   Branch,2,SHWSYS1 DEMAND LOAD BRANCH 1,SHWSYS1,Plant Demand,CORE_BOTTOM SUB CAT WATER INLET NODE,CORE_BOTTOM SUB CAT WATER OUTLET NODE
   Branch,3,SHWSYS1 DEMAND LOAD BRANCH 2,SHWSYS1,Plant Demand,CORE_MID SUB CAT WATER INLET NODE,CORE_MID SUB CAT WATER OUTLET NODE
   Branch,4,SHWSYS1 DEMAND LOAD BRANCH 3,SHWSYS1,Plant Demand,CORE_TOP SUB CAT WATER INLET NODE,CORE_TOP SUB CAT WATER OUTLET NODE
   Branch,5,SHWSYS1 DEMAND LOAD BRANCH 4,SHWSYS1,Plant Demand,PERIMETER_TOP_ZN_3 SUB CAT WATER INLET NODE,PERIMETER_TOP_ZN_3 SUB CAT WATER OUTLET NODE
   Branch,6,SHWSYS1 DEMAND LOAD BRANCH 5,SHWSYS1,Plant Demand,PERIMETER_TOP_ZN_2 SUB CAT WATER INLET NODE,PERIMETER_TOP_ZN_2 SUB CAT WATER OUTLET NODE
   Branch,7,SHWSYS1 DEMAND LOAD BRANCH 6,SHWSYS1,Plant Demand,PERIMETER_TOP_ZN_1 SUB CAT WATER INLET NODE,PERIMETER_TOP_ZN_1 SUB CAT WATER OUTLET NODE
   Branch,8,SHWSYS1 DEMAND LOAD BRANCH 7,SHWSYS1,Plant Demand,PERIMETER_TOP_ZN_4 SUB CAT WATER INLET NODE,PERIMETER_TOP_ZN_4 SUB CAT WATER OUTLET NODE
   Branch,9,SHWSYS1 DEMAND LOAD BRANCH 8,SHWSYS1,Plant Demand,PERIMETER_BOT_ZN_3 SUB CAT WATER INLET NODE,PERIMETER_BOT_ZN_3 SUB CAT WATER OUTLET NODE
   Branch,10,SHWSYS1 DEMAND LOAD BRANCH 9,SHWSYS1,Plant Demand,PERIMETER_BOT_ZN_2 SUB CAT WATER INLET NODE,PERIMETER_BOT_ZN_2 SUB CAT WATER OUTLET NODE
   Branch,11,SHWSYS1 DEMAND LOAD BRANCH 10,SHWSYS1,Plant Demand,PERIMETER_BOT_ZN_1 SUB CAT WATER INLET NODE,PERIMETER_BOT_ZN_1 SUB CAT WATER OUTLET NODE
   Branch,12,SHWSYS1 DEMAND LOAD BRANCH 11,SHWSYS1,Plant Demand,PERIMETER_BOT_ZN_4 SUB CAT WATER INLET NODE,PERIMETER_BOT_ZN_4 SUB CAT WATER OUTLET NODE
   Branch,13,SHWSYS1 DEMAND LOAD BRANCH 12,SHWSYS1,Plant Demand,PERIMETER_MID_ZN_3 SUB CAT WATER INLET NODE,PERIMETER_MID_ZN_3 SUB CAT WATER OUTLET NODE
   Branch,14,SHWSYS1 DEMAND LOAD BRANCH 13,SHWSYS1,Plant Demand,PERIMETER_MID_ZN_2 SUB CAT WATER INLET NODE,PERIMETER_MID_ZN_2 SUB CAT WATER OUTLET NODE
   Branch,15,SHWSYS1 DEMAND LOAD BRANCH 14,SHWSYS1,Plant Demand,PERIMETER_MID_ZN_1 SUB CAT WATER INLET NODE,PERIMETER_MID_ZN_1 SUB CAT WATER OUTLET NODE
   Branch,16,SHWSYS1 DEMAND LOAD BRANCH 15,SHWSYS1,Plant Demand,PERIMETER_MID_ZN_4 SUB CAT WATER INLET NODE,PERIMETER_MID_ZN_4 SUB CAT WATER OUTLET NODE
   Branch,17,SHWSYS1 DEMAND BYPASS BRANCH,SHWSYS1,Plant Demand,SHWSYS1 DEMAND BYPASS PIPE INLET NODE,SHWSYS1 DEMAND BYPASS PIPE OUTLET NODE
   Branch,18,SHWSYS1 DEMAND OUTLET BRANCH,SHWSYS1,Plant Demand,SHWSYS1 DEMAND MIXER-SHWSYS1 DEMAND OUTLET PIPE,SHWSYS1 DEMAND OUTLET NODE
! ===============================================================
! <#Supply Air Paths>,<Number of Supply Air Paths>
 #Supply Air Paths,3
! <Supply Air Path>,<Supply Air Path Count>,<Supply Air Path Name>,<AirLoopHVAC Name>
! <#Components on Supply Air Path>,<Number of Components>
! <Supply Air Path Component>,<Component Count>,<Component Type>,<Component Name>,<AirLoopHVAC Name>
! <#Outlet Nodes on Supply Air Path Component>,<Number of Nodes>
! <Supply Air Path Component Nodes>,<Node Count>,<Component Type>,<Component Name>,<Inlet Node Name>,<Outlet Node Name>,<AirLoopHVAC Name>
 Supply Air Path,1,PACU_VAV_BOT,PACU_VAV_BOT
   #Components on Supply Air Path,1
   Supply Air Path Component,1,AIRLOOPHVAC:ZONESPLITTER,PACU_VAV_BOT SUPPLY AIR SPLITTER,PACU_VAV_BOT
     #Outlet Nodes on Supply Air Path Component,5
     Supply Air Path Component Nodes,1,AIRLOOPHVAC:ZONESPLITTER,PACU_VAV_BOT SUPPLY AIR SPLITTER,PACU_VAV_BOT ZONE EQUIPMENT INLET NODE,CORE_BOTTOM VAV BOX INLET NODE,PACU_VAV_BOT
     Supply Air Path Component Nodes,2,AIRLOOPHVAC:ZONESPLITTER,PACU_VAV_BOT SUPPLY AIR SPLITTER,PACU_VAV_BOT ZONE EQUIPMENT INLET NODE,PERIMETER_BOT_ZN_3 VAV BOX INLET NODE,PACU_VAV_BOT
     Supply Air Path Component Nodes,3,AIRLOOPHVAC:ZONESPLITTER,PACU_VAV_BOT SUPPLY AIR SPLITTER,PACU_VAV_BOT ZONE EQUIPMENT INLET NODE,PERIMETER_BOT_ZN_2 VAV BOX INLET NODE,PACU_VAV_BOT
     Supply Air Path Component Nodes,4,AIRLOOPHVAC:ZONESPLITTER,PACU_VAV_BOT SUPPLY AIR SPLITTER,PACU_VAV_BOT ZONE EQUIPMENT INLET NODE,PERIMETER_BOT_ZN_1 VAV BOX INLET NODE,PACU_VAV_BOT
     Supply Air Path Component Nodes,5,AIRLOOPHVAC:ZONESPLITTER,PACU_VAV_BOT SUPPLY AIR SPLITTER,PACU_VAV_BOT ZONE EQUIPMENT INLET NODE,PERIMETER_BOT_ZN_4 VAV BOX INLET NODE,PACU_VAV_BOT
! <#Nodes on Supply Air Path>,<Number of Nodes>
! <Supply Air Path Node>,<Node Type>,<Node Count>,<Node Name>,<AirLoopHVAC Name>
#Nodes on Supply Air Path,6
   Supply Air Path Node,Inlet Node,1,PACU_VAV_BOT ZONE EQUIPMENT INLET NODE,PACU_VAV_BOT
   Supply Air Path Node,Outlet Node,2,CORE_BOTTOM VAV BOX INLET NODE,PACU_VAV_BOT
   Supply Air Path Node,Outlet Node,3,PERIMETER_BOT_ZN_3 VAV BOX INLET NODE,PACU_VAV_BOT
   Supply Air Path Node,Outlet Node,4,PERIMETER_BOT_ZN_2 VAV BOX INLET NODE,PACU_VAV_BOT
   Supply Air Path Node,Outlet Node,5,PERIMETER_BOT_ZN_1 VAV BOX INLET NODE,PACU_VAV_BOT
   Supply Air Path Node,Outlet Node,6,PERIMETER_BOT_ZN_4 VAV BOX INLET NODE,PACU_VAV_BOT
 Supply Air Path,2,PACU_VAV_MID,PACU_VAV_MID
   #Components on Supply Air Path,1
   Supply Air Path Component,1,AIRLOOPHVAC:ZONESPLITTER,PACU_VAV_MID SUPPLY AIR SPLITTER,PACU_VAV_MID
     #Outlet Nodes on Supply Air Path Component,5
     Supply Air Path Component Nodes,1,AIRLOOPHVAC:ZONESPLITTER,PACU_VAV_MID SUPPLY AIR SPLITTER,PACU_VAV_MID ZONE EQUIPMENT INLET NODE,CORE_MID VAV BOX INLET NODE,PACU_VAV_MID
     Supply Air Path Component Nodes,2,AIRLOOPHVAC:ZONESPLITTER,PACU_VAV_MID SUPPLY AIR SPLITTER,PACU_VAV_MID ZONE EQUIPMENT INLET NODE,PERIMETER_MID_ZN_3 VAV BOX INLET NODE,PACU_VAV_MID
     Supply Air Path Component Nodes,3,AIRLOOPHVAC:ZONESPLITTER,PACU_VAV_MID SUPPLY AIR SPLITTER,PACU_VAV_MID ZONE EQUIPMENT INLET NODE,PERIMETER_MID_ZN_2 VAV BOX INLET NODE,PACU_VAV_MID
     Supply Air Path Component Nodes,4,AIRLOOPHVAC:ZONESPLITTER,PACU_VAV_MID SUPPLY AIR SPLITTER,PACU_VAV_MID ZONE EQUIPMENT INLET NODE,PERIMETER_MID_ZN_1 VAV BOX INLET NODE,PACU_VAV_MID
     Supply Air Path Component Nodes,5,AIRLOOPHVAC:ZONESPLITTER,PACU_VAV_MID SUPPLY AIR SPLITTER,PACU_VAV_MID ZONE EQUIPMENT INLET NODE,PERIMETER_MID_ZN_4 VAV BOX INLET NODE,PACU_VAV_MID
! <#Nodes on Supply Air Path>,<Number of Nodes>
! <Supply Air Path Node>,<Node Type>,<Node Count>,<Node Name>,<AirLoopHVAC Name>
#Nodes on Supply Air Path,6
   Supply Air Path Node,Inlet Node,1,PACU_VAV_MID ZONE EQUIPMENT INLET NODE,PACU_VAV_MID
   Supply Air Path Node,Outlet Node,2,CORE_MID VAV BOX INLET NODE,PACU_VAV_MID
   Supply Air Path Node,Outlet Node,3,PERIMETER_MID_ZN_3 VAV BOX INLET NODE,PACU_VAV_MID
   Supply Air Path Node,Outlet Node,4,PERIMETER_MID_ZN_2 VAV BOX INLET NODE,PACU_VAV_MID
   Supply Air Path Node,Outlet Node,5,PERIMETER_MID_ZN_1 VAV BOX INLET NODE,PACU_VAV_MID
   Supply Air Path Node,Outlet Node,6,PERIMETER_MID_ZN_4 VAV BOX INLET NODE,PACU_VAV_MID
 Supply Air Path,3,PACU_VAV_TOP,PACU_VAV_TOP
   #Components on Supply Air Path,1
   Supply Air Path Component,1,AIRLOOPHVAC:ZONESPLITTER,PACU_VAV_TOP SUPPLY AIR SPLITTER,PACU_VAV_TOP
     #Outlet Nodes on Supply Air Path Component,5
     Supply Air Path Component Nodes,1,AIRLOOPHVAC:ZONESPLITTER,PACU_VAV_TOP SUPPLY AIR SPLITTER,PACU_VAV_TOP ZONE EQUIPMENT INLET NODE,CORE_TOP VAV BOX INLET NODE,PACU_VAV_TOP
     Supply Air Path Component Nodes,2,AIRLOOPHVAC:ZONESPLITTER,PACU_VAV_TOP SUPPLY AIR SPLITTER,PACU_VAV_TOP ZONE EQUIPMENT INLET NODE,PERIMETER_TOP_ZN_3 VAV BOX INLET NODE,PACU_VAV_TOP
     Supply Air Path Component Nodes,3,AIRLOOPHVAC:ZONESPLITTER,PACU_VAV_TOP SUPPLY AIR SPLITTER,PACU_VAV_TOP ZONE EQUIPMENT INLET NODE,PERIMETER_TOP_ZN_2 VAV BOX INLET NODE,PACU_VAV_TOP
     Supply Air Path Component Nodes,4,AIRLOOPHVAC:ZONESPLITTER,PACU_VAV_TOP SUPPLY AIR SPLITTER,PACU_VAV_TOP ZONE EQUIPMENT INLET NODE,PERIMETER_TOP_ZN_1 VAV BOX INLET NODE,PACU_VAV_TOP
     Supply Air Path Component Nodes,5,AIRLOOPHVAC:ZONESPLITTER,PACU_VAV_TOP SUPPLY AIR SPLITTER,PACU_VAV_TOP ZONE EQUIPMENT INLET NODE,PERIMETER_TOP_ZN_4 VAV BOX INLET NODE,PACU_VAV_TOP
! <#Nodes on Supply Air Path>,<Number of Nodes>
! <Supply Air Path Node>,<Node Type>,<Node Count>,<Node Name>,<AirLoopHVAC Name>
#Nodes on Supply Air Path,6
   Supply Air Path Node,Inlet Node,1,PACU_VAV_TOP ZONE EQUIPMENT INLET NODE,PACU_VAV_TOP
   Supply Air Path Node,Outlet Node,2,CORE_TOP VAV BOX INLET NODE,PACU_VAV_TOP
   Supply Air Path Node,Outlet Node,3,PERIMETER_TOP_ZN_3 VAV BOX INLET NODE,PACU_VAV_TOP
   Supply Air Path Node,Outlet Node,4,PERIMETER_TOP_ZN_2 VAV BOX INLET NODE,PACU_VAV_TOP
   Supply Air Path Node,Outlet Node,5,PERIMETER_TOP_ZN_1 VAV BOX INLET NODE,PACU_VAV_TOP
   Supply Air Path Node,Outlet Node,6,PERIMETER_TOP_ZN_4 VAV BOX INLET NODE,PACU_VAV_TOP
! ===============================================================
! <#Return Air Paths>,<Number of Return Air Paths>
 #Return Air Paths,3
! <Return Air Path>,<Return Air Path Count>,<Return Air Path Name>,<AirLoopHVAC Name>
! <#Components on Return Air Path>,<Number of Components>
! <Return Air Path Component>,<Component Count>,<Component Type>,<Component Name>,<AirLoopHVAC Name>
! <#Inlet Nodes on Return Air Path Component>,<Number of Nodes>
! <Return Air Path Component Nodes>,<Node Count>,<Component Type>,<Component Name>,<Inlet Node Name>,<Outlet Node Name>,<AirLoopHVAC Name>
 Return Air Path,1,PACU_VAV_BOT RETURN AIR PATH,PACU_VAV_BOT
   #Components on Return Air Path,2
   Return Air Path Component,1,AIRLOOPHVAC:RETURNPLENUM,FIRSTFLOOR_RETURN_PLENUM,PACU_VAV_BOT
   Return Air Path Component,2,AIRLOOPHVAC:ZONEMIXER,PACU_VAV_BOT RETURN AIR MIXER,PACU_VAV_BOT
     #Inlet Nodes on Return Air Path Component,1
     Return Air Path Component Nodes,1,AIRLOOPHVAC:ZONEMIXER,PACU_VAV_BOT RETURN AIR MIXER,FIRSTFLOOR_PLENUM OUTLET NODE,PACU_VAV_BOT ZONE EQUIPMENT OUTLET NODE,PACU_VAV_BOT
! <#Nodes on Return Air Path>,<Number of Nodes>
! <Return Air Path Node>,<Node Type>,<Node Count>,<Node Name>,<AirLoopHVAC Name>
   #Nodes on Return Air Path,7
   Return Air Path Node,Outlet Node,1,PACU_VAV_BOT ZONE EQUIPMENT OUTLET NODE,PACU_VAV_BOT
   Return Air Path Node,Inlet Node,2,FIRSTFLOOR_PLENUM OUTLET NODE,PACU_VAV_BOT
   Return Air Path Node,Inlet Node,3,CORE_BOTTOM RETURN AIR NODE,PACU_VAV_BOT
   Return Air Path Node,Inlet Node,4,PERIMETER_BOT_ZN_4 RETURN AIR NODE,PACU_VAV_BOT
   Return Air Path Node,Inlet Node,5,PERIMETER_BOT_ZN_3 RETURN AIR NODE,PACU_VAV_BOT
   Return Air Path Node,Inlet Node,6,PERIMETER_BOT_ZN_2 RETURN AIR NODE,PACU_VAV_BOT
   Return Air Path Node,Inlet Node,7,PERIMETER_BOT_ZN_1 RETURN AIR NODE,PACU_VAV_BOT
 Return Air Path,2,PACU_VAV_MID RETURN AIR PATH,PACU_VAV_MID
   #Components on Return Air Path,2
   Return Air Path Component,1,AIRLOOPHVAC:RETURNPLENUM,MIDFLOOR_RETURN_PLENUM,PACU_VAV_MID
   Return Air Path Component,2,AIRLOOPHVAC:ZONEMIXER,PACU_VAV_MID RETURN AIR MIXER,PACU_VAV_MID
     #Inlet Nodes on Return Air Path Component,1
     Return Air Path Component Nodes,1,AIRLOOPHVAC:ZONEMIXER,PACU_VAV_MID RETURN AIR MIXER,MIDFLOOR_PLENUM OUTLET NODE,PACU_VAV_MID ZONE EQUIPMENT OUTLET NODE,PACU_VAV_MID
! <#Nodes on Return Air Path>,<Number of Nodes>
! <Return Air Path Node>,<Node Type>,<Node Count>,<Node Name>,<AirLoopHVAC Name>
   #Nodes on Return Air Path,7
   Return Air Path Node,Outlet Node,1,PACU_VAV_MID ZONE EQUIPMENT OUTLET NODE,PACU_VAV_MID
   Return Air Path Node,Inlet Node,2,MIDFLOOR_PLENUM OUTLET NODE,PACU_VAV_MID
   Return Air Path Node,Inlet Node,3,CORE_MID RETURN AIR NODE,PACU_VAV_MID
   Return Air Path Node,Inlet Node,4,PERIMETER_MID_ZN_4 RETURN AIR NODE,PACU_VAV_MID
   Return Air Path Node,Inlet Node,5,PERIMETER_MID_ZN_3 RETURN AIR NODE,PACU_VAV_MID
   Return Air Path Node,Inlet Node,6,PERIMETER_MID_ZN_2 RETURN AIR NODE,PACU_VAV_MID
   Return Air Path Node,Inlet Node,7,PERIMETER_MID_ZN_1 RETURN AIR NODE,PACU_VAV_MID
 Return Air Path,3,PACU_VAV_TOP RETURN AIR PATH,PACU_VAV_TOP
   #Components on Return Air Path,2
   Return Air Path Component,1,AIRLOOPHVAC:RETURNPLENUM,TOPFLOOR_RETURN_PLENUM,PACU_VAV_TOP
   Return Air Path Component,2,AIRLOOPHVAC:ZONEMIXER,PACU_VAV_TOP RETURN AIR MIXER,PACU_VAV_TOP
     #Inlet Nodes on Return Air Path Component,1
     Return Air Path Component Nodes,1,AIRLOOPHVAC:ZONEMIXER,PACU_VAV_TOP RETURN AIR MIXER,TOPFLOOR_PLENUM OUTLET NODE,PACU_VAV_TOP ZONE EQUIPMENT OUTLET NODE,PACU_VAV_TOP
! <#Nodes on Return Air Path>,<Number of Nodes>
! <Return Air Path Node>,<Node Type>,<Node Count>,<Node Name>,<AirLoopHVAC Name>
   #Nodes on Return Air Path,7
   Return Air Path Node,Outlet Node,1,PACU_VAV_TOP ZONE EQUIPMENT OUTLET NODE,PACU_VAV_TOP
   Return Air Path Node,Inlet Node,2,TOPFLOOR_PLENUM OUTLET NODE,PACU_VAV_TOP
   Return Air Path Node,Inlet Node,3,CORE_TOP RETURN AIR NODE,PACU_VAV_TOP
   Return Air Path Node,Inlet Node,4,PERIMETER_TOP_ZN_4 RETURN AIR NODE,PACU_VAV_TOP
   Return Air Path Node,Inlet Node,5,PERIMETER_TOP_ZN_3 RETURN AIR NODE,PACU_VAV_TOP
   Return Air Path Node,Inlet Node,6,PERIMETER_TOP_ZN_2 RETURN AIR NODE,PACU_VAV_TOP
   Return Air Path Node,Inlet Node,7,PERIMETER_TOP_ZN_1 RETURN AIR NODE,PACU_VAV_TOP
! ===============================================================
! #Outdoor Air Nodes,<Number of Outdoor Air Nodes>
 #Outdoor Air Nodes,9
! <Outdoor Air Node>,<NodeNumber>,<Node Name>
 Outdoor Air Node,16,PACU_VAV_BOT_OAINLET NODE
 Outdoor Air Node,17,PACU_VAV_MID_OAINLET NODE
 Outdoor Air Node,18,PACU_VAV_TOP_OAINLET NODE
 Outdoor Air Node,114,PACU_VAV_BOT_COOLC COND OA NODE
 Outdoor Air Node,115,PACU_VAV_BOT_COOLCOA REF NODE
 Outdoor Air Node,116,PACU_VAV_MID_COOLC COND OA NODE
 Outdoor Air Node,117,PACU_VAV_MID_COOLCOA REF NODE
 Outdoor Air Node,118,PACU_VAV_TOP_COOLC COND OA NODE
 Outdoor Air Node,119,PACU_VAV_TOP_COOLCOA REF NODE
! ===============================================================
! <#Component Sets>,<Number of Component Sets>
 #Component Sets,70
! <Component Set>,<Component Set Count>,<Parent Object Type>,<Parent Object Name>,<Component Type>,<Component Name>,<Inlet Node ID>,<Outlet Node ID>,<Description>
 Component Set,1,BRANCH,PACU_VAV_BOT AIR LOOP MAIN BRANCH,AIRLOOPHVAC:OUTDOORAIRSYSTEM,PACU_VAV_BOT_OA,PACU_VAV_BOT SUPPLY EQUIPMENT INLET NODE,PACU_VAV_BOT_OA-PACU_VAV_BOT_COOLCNODE,Air Nodes
 Component Set,2,BRANCH,PACU_VAV_BOT AIR LOOP MAIN BRANCH,COILSYSTEM:COOLING:DX,PACU_VAV_BOT_COOLC,PACU_VAV_BOT_OA-PACU_VAV_BOT_COOLCNODE,PACU_VAV_BOT_COOLC-PACU_VAV_BOT_HEATCNODE,Air Nodes
 Component Set,3,BRANCH,PACU_VAV_BOT AIR LOOP MAIN BRANCH,COIL:HEATING:FUEL,PACU_VAV_BOT_HEATC,PACU_VAV_BOT_COOLC-PACU_VAV_BOT_HEATCNODE,PACU_VAV_BOT_HEATC-PACU_VAV_BOT FANNODE,Air Nodes
 Component Set,4,BRANCH,PACU_VAV_BOT AIR LOOP MAIN BRANCH,FAN:VARIABLEVOLUME,PACU_VAV_BOT FAN,PACU_VAV_BOT_HEATC-PACU_VAV_BOT FANNODE,PACU_VAV_BOT SUPPLY EQUIPMENT OUTLET NODE,Air Nodes
 Component Set,5,BRANCH,PACU_VAV_MID AIR LOOP MAIN BRANCH,AIRLOOPHVAC:OUTDOORAIRSYSTEM,PACU_VAV_MID_OA,PACU_VAV_MID SUPPLY EQUIPMENT INLET NODE,PACU_VAV_MID_OA-PACU_VAV_MID_COOLCNODE,Air Nodes
 Component Set,6,BRANCH,PACU_VAV_MID AIR LOOP MAIN BRANCH,COILSYSTEM:COOLING:DX,PACU_VAV_MID_COOLC,PACU_VAV_MID_OA-PACU_VAV_MID_COOLCNODE,PACU_VAV_MID_COOLC-PACU_VAV_MID_HEATCNODE,Air Nodes
 Component Set,7,BRANCH,PACU_VAV_MID AIR LOOP MAIN BRANCH,COIL:HEATING:FUEL,PACU_VAV_MID_HEATC,PACU_VAV_MID_COOLC-PACU_VAV_MID_HEATCNODE,PACU_VAV_MID_HEATC-PACU_VAV_MID FANNODE,Air Nodes
 Component Set,8,BRANCH,PACU_VAV_MID AIR LOOP MAIN BRANCH,FAN:VARIABLEVOLUME,PACU_VAV_MID FAN,PACU_VAV_MID_HEATC-PACU_VAV_MID FANNODE,PACU_VAV_MID SUPPLY EQUIPMENT OUTLET NODE,Air Nodes
 Component Set,9,BRANCH,PACU_VAV_TOP AIR LOOP MAIN BRANCH,AIRLOOPHVAC:OUTDOORAIRSYSTEM,PACU_VAV_TOP_OA,PACU_VAV_TOP SUPPLY EQUIPMENT INLET NODE,PACU_VAV_TOP_OA-PACU_VAV_TOP_COOLCNODE,Air Nodes
 Component Set,10,BRANCH,PACU_VAV_TOP AIR LOOP MAIN BRANCH,COILSYSTEM:COOLING:DX,PACU_VAV_TOP_COOLC,PACU_VAV_TOP_OA-PACU_VAV_TOP_COOLCNODE,PACU_VAV_TOP_COOLC-PACU_VAV_TOP_HEATCNODE,Air Nodes
 Component Set,11,BRANCH,PACU_VAV_TOP AIR LOOP MAIN BRANCH,COIL:HEATING:FUEL,PACU_VAV_TOP_HEATC,PACU_VAV_TOP_COOLC-PACU_VAV_TOP_HEATCNODE,PACU_VAV_TOP_HEATC-PACU_VAV_TOP FANNODE,Air Nodes
 Component Set,12,BRANCH,PACU_VAV_TOP AIR LOOP MAIN BRANCH,FAN:VARIABLEVOLUME,PACU_VAV_TOP FAN,PACU_VAV_TOP_HEATC-PACU_VAV_TOP FANNODE,PACU_VAV_TOP SUPPLY EQUIPMENT OUTLET NODE,Air Nodes
 Component Set,13,BRANCH,SHWSYS1 SUPPLY INLET BRANCH,PUMP:CONSTANTSPEED,SHWSYS1 PUMP,SHWSYS1 SUPPLY INLET NODE,SHWSYS1 PUMP-SHWSYS1 WATER HEATERNODEVIACONNECTOR,Water Nodes
 Component Set,14,BRANCH,SHWSYS1 SUPPLY EQUIPMENT BRANCH,WATERHEATER:MIXED,SHWSYS1 WATER HEATER,SHWSYS1 PUMP-SHWSYS1 WATER HEATERNODE,SHWSYS1 SUPPLY EQUIPMENT OUTLET NODE,Use Side Water Nodes
 Component Set,15,BRANCH,SHWSYS1 SUPPLY EQUIPMENT BYPASS BRANCH,PIPE:ADIABATIC,SHWSYS1 SUPPLY EQUIPMENT BYPASS PIPE,SHWSYS1 SUPPLY EQUIP BYPASS INLET NODE,SHWSYS1 SUPPLY EQUIP BYPASS OUTLET NODE,Pipe Nodes
 Component Set,16,BRANCH,SHWSYS1 SUPPLY OUTLET BRANCH,PIPE:ADIABATIC,SHWSYS1 SUPPLY OUTLET PIPE,SHWSYS1 SUPPLY MIXER-SHWSYS1 SUPPLY OUTLET PIPE,SHWSYS1 SUPPLY OUTLET NODE,Pipe Nodes
 Component Set,17,BRANCH,SHWSYS1 DEMAND INLET BRANCH,PIPE:ADIABATIC,SHWSYS1 DEMAND INLET PIPE,SHWSYS1 DEMAND INLET NODE,SHWSYS1 DEMAND INLET PIPE-SHWSYS1 DEMAND MIXER,Pipe Nodes
 Component Set,18,BRANCH,SHWSYS1 DEMAND LOAD BRANCH 1,WATERUSE:CONNECTIONS,CORE_BOTTOM SUB CAT,CORE_BOTTOM SUB CAT WATER INLET NODE,CORE_BOTTOM SUB CAT WATER OUTLET NODE,DHW Nodes
 Component Set,19,BRANCH,SHWSYS1 DEMAND LOAD BRANCH 2,WATERUSE:CONNECTIONS,CORE_MID SUB CAT,CORE_MID SUB CAT WATER INLET NODE,CORE_MID SUB CAT WATER OUTLET NODE,DHW Nodes
 Component Set,20,BRANCH,SHWSYS1 DEMAND LOAD BRANCH 3,WATERUSE:CONNECTIONS,CORE_TOP SUB CAT,CORE_TOP SUB CAT WATER INLET NODE,CORE_TOP SUB CAT WATER OUTLET NODE,DHW Nodes
 Component Set,21,BRANCH,SHWSYS1 DEMAND LOAD BRANCH 4,WATERUSE:CONNECTIONS,PERIMETER_TOP_ZN_3 SUB CAT,PERIMETER_TOP_ZN_3 SUB CAT WATER INLET NODE,PERIMETER_TOP_ZN_3 SUB CAT WATER OUTLET NODE,DHW Nodes
 Component Set,22,BRANCH,SHWSYS1 DEMAND LOAD BRANCH 5,WATERUSE:CONNECTIONS,PERIMETER_TOP_ZN_2 SUB CAT,PERIMETER_TOP_ZN_2 SUB CAT WATER INLET NODE,PERIMETER_TOP_ZN_2 SUB CAT WATER OUTLET NODE,DHW Nodes
 Component Set,23,BRANCH,SHWSYS1 DEMAND LOAD BRANCH 6,WATERUSE:CONNECTIONS,PERIMETER_TOP_ZN_1 SUB CAT,PERIMETER_TOP_ZN_1 SUB CAT WATER INLET NODE,PERIMETER_TOP_ZN_1 SUB CAT WATER OUTLET NODE,DHW Nodes
 Component Set,24,BRANCH,SHWSYS1 DEMAND LOAD BRANCH 7,WATERUSE:CONNECTIONS,PERIMETER_TOP_ZN_4 SUB CAT,PERIMETER_TOP_ZN_4 SUB CAT WATER INLET NODE,PERIMETER_TOP_ZN_4 SUB CAT WATER OUTLET NODE,DHW Nodes
 Component Set,25,BRANCH,SHWSYS1 DEMAND LOAD BRANCH 8,WATERUSE:CONNECTIONS,PERIMETER_BOT_ZN_3 SUB CAT,PERIMETER_BOT_ZN_3 SUB CAT WATER INLET NODE,PERIMETER_BOT_ZN_3 SUB CAT WATER OUTLET NODE,DHW Nodes
 Component Set,26,BRANCH,SHWSYS1 DEMAND LOAD BRANCH 9,WATERUSE:CONNECTIONS,PERIMETER_BOT_ZN_2 SUB CAT,PERIMETER_BOT_ZN_2 SUB CAT WATER INLET NODE,PERIMETER_BOT_ZN_2 SUB CAT WATER OUTLET NODE,DHW Nodes
 Component Set,27,BRANCH,SHWSYS1 DEMAND LOAD BRANCH 10,WATERUSE:CONNECTIONS,PERIMETER_BOT_ZN_1 SUB CAT,PERIMETER_BOT_ZN_1 SUB CAT WATER INLET NODE,PERIMETER_BOT_ZN_1 SUB CAT WATER OUTLET NODE,DHW Nodes
 Component Set,28,BRANCH,SHWSYS1 DEMAND LOAD BRANCH 11,WATERUSE:CONNECTIONS,PERIMETER_BOT_ZN_4 SUB CAT,PERIMETER_BOT_ZN_4 SUB CAT WATER INLET NODE,PERIMETER_BOT_ZN_4 SUB CAT WATER OUTLET NODE,DHW Nodes
 Component Set,29,BRANCH,SHWSYS1 DEMAND LOAD BRANCH 12,WATERUSE:CONNECTIONS,PERIMETER_MID_ZN_3 SUB CAT,PERIMETER_MID_ZN_3 SUB CAT WATER INLET NODE,PERIMETER_MID_ZN_3 SUB CAT WATER OUTLET NODE,DHW Nodes
 Component Set,30,BRANCH,SHWSYS1 DEMAND LOAD BRANCH 13,WATERUSE:CONNECTIONS,PERIMETER_MID_ZN_2 SUB CAT,PERIMETER_MID_ZN_2 SUB CAT WATER INLET NODE,PERIMETER_MID_ZN_2 SUB CAT WATER OUTLET NODE,DHW Nodes
 Component Set,31,BRANCH,SHWSYS1 DEMAND LOAD BRANCH 14,WATERUSE:CONNECTIONS,PERIMETER_MID_ZN_1 SUB CAT,PERIMETER_MID_ZN_1 SUB CAT WATER INLET NODE,PERIMETER_MID_ZN_1 SUB CAT WATER OUTLET NODE,DHW Nodes
 Component Set,32,BRANCH,SHWSYS1 DEMAND LOAD BRANCH 15,WATERUSE:CONNECTIONS,PERIMETER_MID_ZN_4 SUB CAT,PERIMETER_MID_ZN_4 SUB CAT WATER INLET NODE,PERIMETER_MID_ZN_4 SUB CAT WATER OUTLET NODE,DHW Nodes
 Component Set,33,BRANCH,SHWSYS1 DEMAND BYPASS BRANCH,PIPE:ADIABATIC,SHWSYS1 DEMAND BYPASS PIPE,SHWSYS1 DEMAND BYPASS PIPE INLET NODE,SHWSYS1 DEMAND BYPASS PIPE OUTLET NODE,Pipe Nodes
 Component Set,34,BRANCH,SHWSYS1 DEMAND OUTLET BRANCH,PIPE:ADIABATIC,SHWSYS1 DEMAND OUTLET PIPE,SHWSYS1 DEMAND MIXER-SHWSYS1 DEMAND OUTLET PIPE,SHWSYS1 DEMAND OUTLET NODE,Pipe Nodes
 Component Set,35,ZONEHVAC:AIRDISTRIBUTIONUNIT,CORE_BOTTOM VAV BOX,AIRTERMINAL:SINGLEDUCT:VAV:REHEAT,CORE_BOTTOM VAV BOX COMPONENT,CORE_BOTTOM VAV BOX INLET NODE,CORE_BOTTOM VAV BOX OUTLET NODE,Air Nodes
 Component Set,36,ZONEHVAC:AIRDISTRIBUTIONUNIT,CORE_MID VAV BOX,AIRTERMINAL:SINGLEDUCT:VAV:REHEAT,CORE_MID VAV BOX COMPONENT,CORE_MID VAV BOX INLET NODE,CORE_MID VAV BOX OUTLET NODE,Air Nodes
 Component Set,37,ZONEHVAC:AIRDISTRIBUTIONUNIT,CORE_TOP VAV BOX,AIRTERMINAL:SINGLEDUCT:VAV:REHEAT,CORE_TOP VAV BOX COMPONENT,CORE_TOP VAV BOX INLET NODE,CORE_TOP VAV BOX OUTLET NODE,Air Nodes
 Component Set,38,ZONEHVAC:AIRDISTRIBUTIONUNIT,PERIMETER_TOP_ZN_3 VAV BOX,AIRTERMINAL:SINGLEDUCT:VAV:REHEAT,PERIMETER_TOP_ZN_3 VAV BOX COMPONENT,PERIMETER_TOP_ZN_3 VAV BOX INLET NODE,PERIMETER_TOP_ZN_3 VAV BOX OUTLET NODE,Air Nodes
 Component Set,39,ZONEHVAC:AIRDISTRIBUTIONUNIT,PERIMETER_TOP_ZN_2 VAV BOX,AIRTERMINAL:SINGLEDUCT:VAV:REHEAT,PERIMETER_TOP_ZN_2 VAV BOX COMPONENT,PERIMETER_TOP_ZN_2 VAV BOX INLET NODE,PERIMETER_TOP_ZN_2 VAV BOX OUTLET NODE,Air Nodes
 Component Set,40,ZONEHVAC:AIRDISTRIBUTIONUNIT,PERIMETER_TOP_ZN_1 VAV BOX,AIRTERMINAL:SINGLEDUCT:VAV:REHEAT,PERIMETER_TOP_ZN_1 VAV BOX COMPONENT,PERIMETER_TOP_ZN_1 VAV BOX INLET NODE,PERIMETER_TOP_ZN_1 VAV BOX OUTLET NODE,Air Nodes
 Component Set,41,ZONEHVAC:AIRDISTRIBUTIONUNIT,PERIMETER_TOP_ZN_4 VAV BOX,AIRTERMINAL:SINGLEDUCT:VAV:REHEAT,PERIMETER_TOP_ZN_4 VAV BOX COMPONENT,PERIMETER_TOP_ZN_4 VAV BOX INLET NODE,PERIMETER_TOP_ZN_4 VAV BOX OUTLET NODE,Air Nodes
 Component Set,42,ZONEHVAC:AIRDISTRIBUTIONUNIT,PERIMETER_BOT_ZN_3 VAV BOX,AIRTERMINAL:SINGLEDUCT:VAV:REHEAT,PERIMETER_BOT_ZN_3 VAV BOX COMPONENT,PERIMETER_BOT_ZN_3 VAV BOX INLET NODE,PERIMETER_BOT_ZN_3 VAV BOX OUTLET NODE,Air Nodes
 Component Set,43,ZONEHVAC:AIRDISTRIBUTIONUNIT,PERIMETER_BOT_ZN_2 VAV BOX,AIRTERMINAL:SINGLEDUCT:VAV:REHEAT,PERIMETER_BOT_ZN_2 VAV BOX COMPONENT,PERIMETER_BOT_ZN_2 VAV BOX INLET NODE,PERIMETER_BOT_ZN_2 VAV BOX OUTLET NODE,Air Nodes
 Component Set,44,ZONEHVAC:AIRDISTRIBUTIONUNIT,PERIMETER_BOT_ZN_1 VAV BOX,AIRTERMINAL:SINGLEDUCT:VAV:REHEAT,PERIMETER_BOT_ZN_1 VAV BOX COMPONENT,PERIMETER_BOT_ZN_1 VAV BOX INLET NODE,PERIMETER_BOT_ZN_1 VAV BOX OUTLET NODE,Air Nodes
 Component Set,45,ZONEHVAC:AIRDISTRIBUTIONUNIT,PERIMETER_BOT_ZN_4 VAV BOX,AIRTERMINAL:SINGLEDUCT:VAV:REHEAT,PERIMETER_BOT_ZN_4 VAV BOX COMPONENT,PERIMETER_BOT_ZN_4 VAV BOX INLET NODE,PERIMETER_BOT_ZN_4 VAV BOX OUTLET NODE,Air Nodes
 Component Set,46,ZONEHVAC:AIRDISTRIBUTIONUNIT,PERIMETER_MID_ZN_3 VAV BOX,AIRTERMINAL:SINGLEDUCT:VAV:REHEAT,PERIMETER_MID_ZN_3 VAV BOX COMPONENT,PERIMETER_MID_ZN_3 VAV BOX INLET NODE,PERIMETER_MID_ZN_3 VAV BOX OUTLET NODE,Air Nodes
 Component Set,47,ZONEHVAC:AIRDISTRIBUTIONUNIT,PERIMETER_MID_ZN_2 VAV BOX,AIRTERMINAL:SINGLEDUCT:VAV:REHEAT,PERIMETER_MID_ZN_2 VAV BOX COMPONENT,PERIMETER_MID_ZN_2 VAV BOX INLET NODE,PERIMETER_MID_ZN_2 VAV BOX OUTLET NODE,Air Nodes
 Component Set,48,ZONEHVAC:AIRDISTRIBUTIONUNIT,PERIMETER_MID_ZN_1 VAV BOX,AIRTERMINAL:SINGLEDUCT:VAV:REHEAT,PERIMETER_MID_ZN_1 VAV BOX COMPONENT,PERIMETER_MID_ZN_1 VAV BOX INLET NODE,PERIMETER_MID_ZN_1 VAV BOX OUTLET NODE,Air Nodes
 Component Set,49,ZONEHVAC:AIRDISTRIBUTIONUNIT,PERIMETER_MID_ZN_4 VAV BOX,AIRTERMINAL:SINGLEDUCT:VAV:REHEAT,PERIMETER_MID_ZN_4 VAV BOX COMPONENT,PERIMETER_MID_ZN_4 VAV BOX INLET NODE,PERIMETER_MID_ZN_4 VAV BOX OUTLET NODE,Air Nodes
 Component Set,50,AIRTERMINAL:SINGLEDUCT:VAV:REHEAT,CORE_BOTTOM VAV BOX COMPONENT,COIL:HEATING:ELECTRIC,CORE_BOTTOM VAV BOX REHEAT COIL,CORE_BOTTOM VAV BOX DAMPER NODE,CORE_BOTTOM VAV BOX OUTLET NODE,Air Nodes
 Component Set,51,AIRTERMINAL:SINGLEDUCT:VAV:REHEAT,CORE_MID VAV BOX COMPONENT,COIL:HEATING:ELECTRIC,CORE_MID VAV BOX REHEAT COIL,CORE_MID VAV BOX DAMPER NODE,CORE_MID VAV BOX OUTLET NODE,Air Nodes
 Component Set,52,AIRTERMINAL:SINGLEDUCT:VAV:REHEAT,CORE_TOP VAV BOX COMPONENT,COIL:HEATING:ELECTRIC,CORE_TOP VAV BOX REHEAT COIL,CORE_TOP VAV BOX DAMPER NODE,CORE_TOP VAV BOX OUTLET NODE,Air Nodes
 Component Set,53,AIRTERMINAL:SINGLEDUCT:VAV:REHEAT,PERIMETER_TOP_ZN_3 VAV BOX COMPONENT,COIL:HEATING:ELECTRIC,PERIMETER_TOP_ZN_3 VAV BOX REHEAT COIL,PERIMETER_TOP_ZN_3 VAV BOX DAMPER NODE,PERIMETER_TOP_ZN_3 VAV BOX OUTLET NODE,Air Nodes
 Component Set,54,AIRTERMINAL:SINGLEDUCT:VAV:REHEAT,PERIMETER_TOP_ZN_2 VAV BOX COMPONENT,COIL:HEATING:ELECTRIC,PERIMETER_TOP_ZN_2 VAV BOX REHEAT COIL,PERIMETER_TOP_ZN_2 VAV BOX DAMPER NODE,PERIMETER_TOP_ZN_2 VAV BOX OUTLET NODE,Air Nodes
 Component Set,55,AIRTERMINAL:SINGLEDUCT:VAV:REHEAT,PERIMETER_TOP_ZN_1 VAV BOX COMPONENT,COIL:HEATING:ELECTRIC,PERIMETER_TOP_ZN_1 VAV BOX REHEAT COIL,PERIMETER_TOP_ZN_1 VAV BOX DAMPER NODE,PERIMETER_TOP_ZN_1 VAV BOX OUTLET NODE,Air Nodes
 Component Set,56,AIRTERMINAL:SINGLEDUCT:VAV:REHEAT,PERIMETER_TOP_ZN_4 VAV BOX COMPONENT,COIL:HEATING:ELECTRIC,PERIMETER_TOP_ZN_4 VAV BOX REHEAT COIL,PERIMETER_TOP_ZN_4 VAV BOX DAMPER NODE,PERIMETER_TOP_ZN_4 VAV BOX OUTLET NODE,Air Nodes
 Component Set,57,AIRTERMINAL:SINGLEDUCT:VAV:REHEAT,PERIMETER_BOT_ZN_3 VAV BOX COMPONENT,COIL:HEATING:ELECTRIC,PERIMETER_BOT_ZN_3 VAV BOX REHEAT COIL,PERIMETER_BOT_ZN_3 VAV BOX DAMPER NODE,PERIMETER_BOT_ZN_3 VAV BOX OUTLET NODE,Air Nodes
 Component Set,58,AIRTERMINAL:SINGLEDUCT:VAV:REHEAT,PERIMETER_BOT_ZN_2 VAV BOX COMPONENT,COIL:HEATING:ELECTRIC,PERIMETER_BOT_ZN_2 VAV BOX REHEAT COIL,PERIMETER_BOT_ZN_2 VAV BOX DAMPER NODE,PERIMETER_BOT_ZN_2 VAV BOX OUTLET NODE,Air Nodes
 Component Set,59,AIRTERMINAL:SINGLEDUCT:VAV:REHEAT,PERIMETER_BOT_ZN_1 VAV BOX COMPONENT,COIL:HEATING:ELECTRIC,PERIMETER_BOT_ZN_1 VAV BOX REHEAT COIL,PERIMETER_BOT_ZN_1 VAV BOX DAMPER NODE,PERIMETER_BOT_ZN_1 VAV BOX OUTLET NODE,Air Nodes
 Component Set,60,AIRTERMINAL:SINGLEDUCT:VAV:REHEAT,PERIMETER_BOT_ZN_4 VAV BOX COMPONENT,COIL:HEATING:ELECTRIC,PERIMETER_BOT_ZN_4 VAV BOX REHEAT COIL,PERIMETER_BOT_ZN_4 VAV BOX DAMPER NODE,PERIMETER_BOT_ZN_4 VAV BOX OUTLET NODE,Air Nodes
 Component Set,61,AIRTERMINAL:SINGLEDUCT:VAV:REHEAT,PERIMETER_MID_ZN_3 VAV BOX COMPONENT,COIL:HEATING:ELECTRIC,PERIMETER_MID_ZN_3 VAV BOX REHEAT COIL,PERIMETER_MID_ZN_3 VAV BOX DAMPER NODE,PERIMETER_MID_ZN_3 VAV BOX OUTLET NODE,Air Nodes
 Component Set,62,AIRTERMINAL:SINGLEDUCT:VAV:REHEAT,PERIMETER_MID_ZN_2 VAV BOX COMPONENT,COIL:HEATING:ELECTRIC,PERIMETER_MID_ZN_2 VAV BOX REHEAT COIL,PERIMETER_MID_ZN_2 VAV BOX DAMPER NODE,PERIMETER_MID_ZN_2 VAV BOX OUTLET NODE,Air Nodes
 Component Set,63,AIRTERMINAL:SINGLEDUCT:VAV:REHEAT,PERIMETER_MID_ZN_1 VAV BOX COMPONENT,COIL:HEATING:ELECTRIC,PERIMETER_MID_ZN_1 VAV BOX REHEAT COIL,PERIMETER_MID_ZN_1 VAV BOX DAMPER NODE,PERIMETER_MID_ZN_1 VAV BOX OUTLET NODE,Air Nodes
 Component Set,64,AIRTERMINAL:SINGLEDUCT:VAV:REHEAT,PERIMETER_MID_ZN_4 VAV BOX COMPONENT,COIL:HEATING:ELECTRIC,PERIMETER_MID_ZN_4 VAV BOX REHEAT COIL,PERIMETER_MID_ZN_4 VAV BOX DAMPER NODE,PERIMETER_MID_ZN_4 VAV BOX OUTLET NODE,Air Nodes
 Component Set,65,AIRLOOPHVAC:OUTDOORAIRSYSTEM,PACU_VAV_BOT_OA,OUTDOORAIR:MIXER,PACU_VAV_BOT_OAMIXING BOX,PACU_VAV_BOT_OAINLET NODE,PACU_VAV_BOT_OA-PACU_VAV_BOT_COOLCNODE,Air Nodes
 Component Set,66,AIRLOOPHVAC:OUTDOORAIRSYSTEM,PACU_VAV_MID_OA,OUTDOORAIR:MIXER,PACU_VAV_MID_OAMIXING BOX,PACU_VAV_MID_OAINLET NODE,PACU_VAV_MID_OA-PACU_VAV_MID_COOLCNODE,Air Nodes
 Component Set,67,AIRLOOPHVAC:OUTDOORAIRSYSTEM,PACU_VAV_TOP_OA,OUTDOORAIR:MIXER,PACU_VAV_TOP_OAMIXING BOX,PACU_VAV_TOP_OAINLET NODE,PACU_VAV_TOP_OA-PACU_VAV_TOP_COOLCNODE,Air Nodes
 Component Set,68,COILSYSTEM:COOLING:DX,PACU_VAV_BOT_COOLC,COIL:COOLING:DX:TWOSPEED,PACU_VAV_BOT_COOLC DXCOIL,PACU_VAV_BOT_OA-PACU_VAV_BOT_COOLCNODE,PACU_VAV_BOT_COOLC-PACU_VAV_BOT_HEATCNODE,Air Nodes
 Component Set,69,COILSYSTEM:COOLING:DX,PACU_VAV_MID_COOLC,COIL:COOLING:DX:TWOSPEED,PACU_VAV_MID_COOLC DXCOIL,PACU_VAV_MID_OA-PACU_VAV_MID_COOLCNODE,PACU_VAV_MID_COOLC-PACU_VAV_MID_HEATCNODE,Air Nodes
 Component Set,70,COILSYSTEM:COOLING:DX,PACU_VAV_TOP_COOLC,COIL:COOLING:DX:TWOSPEED,PACU_VAV_TOP_COOLC DXCOIL,PACU_VAV_TOP_OA-PACU_VAV_TOP_COOLCNODE,PACU_VAV_TOP_COOLC-PACU_VAV_TOP_HEATCNODE,Air Nodes
! ===============================================================
! <# Plant Loops>,<Number of Plant Loops>
 #Plant Loops,1
! <Plant Loop>,<Plant Loop Name>,<Loop Type>,<Inlet Node Name>,<Outlet Node Name>,<Branch List>,<Connector List>
! <Plant Loop Connector>,<Connector Type>,<Connector Name>,<Loop Name>,<Loop Type>,<Number of Inlets/Outlets>
! <Plant Loop Connector Branches>,<Connector Node Count>,<Connector Type>,<Connector Name>,<Inlet Branch>,<Outlet Branch>,<Loop Name>,<Loop Type>
! <Plant Loop Connector Nodes>,<Connector Node Count>,<Connector Type>,<Connector Name>,<Inlet Node>,<Outlet Node>,<Loop Name>,<Loop Type>
! <Plant Loop Supply Connection>,<Plant Loop Name>,<Supply Side Outlet Node Name>,<Demand Side Inlet Node Name>
! <Plant Loop Return Connection>,<Plant Loop Name>,<Demand Side Outlet Node Name>,<Supply Side Inlet Node Name>
 Plant Loop,SHWSYS1,Demand,SHWSYS1 DEMAND INLET NODE,SHWSYS1 DEMAND OUTLET NODE,SHWSYS1 DEMAND BRANCHES,SHWSYS1 DEMAND CONNECTORS
   Plant Loop Connector,Splitter,SHWSYS1 DEMAND SPLITTER,SHWSYS1,Demand,16
     Plant Loop Connector Branches,1,Splitter,SHWSYS1 DEMAND SPLITTER,SHWSYS1 DEMAND INLET BRANCH,SHWSYS1 DEMAND LOAD BRANCH 1,SHWSYS1,Demand
     Plant Loop Connector Nodes,   1,Splitter,SHWSYS1 DEMAND SPLITTER,SHWSYS1 DEMAND INLET PIPE-SHWSYS1 DEMAND MIXER,CORE_BOTTOM SUB CAT WATER INLET NODE,SHWSYS1,Demand
     Plant Loop Connector Branches,2,Splitter,SHWSYS1 DEMAND SPLITTER,SHWSYS1 DEMAND INLET BRANCH,SHWSYS1 DEMAND LOAD BRANCH 2,SHWSYS1,Demand
     Plant Loop Connector Nodes,   2,Splitter,SHWSYS1 DEMAND SPLITTER,SHWSYS1 DEMAND INLET PIPE-SHWSYS1 DEMAND MIXER,CORE_MID SUB CAT WATER INLET NODE,SHWSYS1,Demand
     Plant Loop Connector Branches,3,Splitter,SHWSYS1 DEMAND SPLITTER,SHWSYS1 DEMAND INLET BRANCH,SHWSYS1 DEMAND LOAD BRANCH 3,SHWSYS1,Demand
     Plant Loop Connector Nodes,   3,Splitter,SHWSYS1 DEMAND SPLITTER,SHWSYS1 DEMAND INLET PIPE-SHWSYS1 DEMAND MIXER,CORE_TOP SUB CAT WATER INLET NODE,SHWSYS1,Demand
     Plant Loop Connector Branches,4,Splitter,SHWSYS1 DEMAND SPLITTER,SHWSYS1 DEMAND INLET BRANCH,SHWSYS1 DEMAND LOAD BRANCH 4,SHWSYS1,Demand
     Plant Loop Connector Nodes,   4,Splitter,SHWSYS1 DEMAND SPLITTER,SHWSYS1 DEMAND INLET PIPE-SHWSYS1 DEMAND MIXER,PERIMETER_TOP_ZN_3 SUB CAT WATER INLET NODE,SHWSYS1,Demand
     Plant Loop Connector Branches,5,Splitter,SHWSYS1 DEMAND SPLITTER,SHWSYS1 DEMAND INLET BRANCH,SHWSYS1 DEMAND LOAD BRANCH 5,SHWSYS1,Demand
     Plant Loop Connector Nodes,   5,Splitter,SHWSYS1 DEMAND SPLITTER,SHWSYS1 DEMAND INLET PIPE-SHWSYS1 DEMAND MIXER,PERIMETER_TOP_ZN_2 SUB CAT WATER INLET NODE,SHWSYS1,Demand
     Plant Loop Connector Branches,6,Splitter,SHWSYS1 DEMAND SPLITTER,SHWSYS1 DEMAND INLET BRANCH,SHWSYS1 DEMAND LOAD BRANCH 6,SHWSYS1,Demand
     Plant Loop Connector Nodes,   6,Splitter,SHWSYS1 DEMAND SPLITTER,SHWSYS1 DEMAND INLET PIPE-SHWSYS1 DEMAND MIXER,PERIMETER_TOP_ZN_1 SUB CAT WATER INLET NODE,SHWSYS1,Demand
     Plant Loop Connector Branches,7,Splitter,SHWSYS1 DEMAND SPLITTER,SHWSYS1 DEMAND INLET BRANCH,SHWSYS1 DEMAND LOAD BRANCH 7,SHWSYS1,Demand
     Plant Loop Connector Nodes,   7,Splitter,SHWSYS1 DEMAND SPLITTER,SHWSYS1 DEMAND INLET PIPE-SHWSYS1 DEMAND MIXER,PERIMETER_TOP_ZN_4 SUB CAT WATER INLET NODE,SHWSYS1,Demand
     Plant Loop Connector Branches,8,Splitter,SHWSYS1 DEMAND SPLITTER,SHWSYS1 DEMAND INLET BRANCH,SHWSYS1 DEMAND LOAD BRANCH 8,SHWSYS1,Demand
     Plant Loop Connector Nodes,   8,Splitter,SHWSYS1 DEMAND SPLITTER,SHWSYS1 DEMAND INLET PIPE-SHWSYS1 DEMAND MIXER,PERIMETER_BOT_ZN_3 SUB CAT WATER INLET NODE,SHWSYS1,Demand
     Plant Loop Connector Branches,9,Splitter,SHWSYS1 DEMAND SPLITTER,SHWSYS1 DEMAND INLET BRANCH,SHWSYS1 DEMAND LOAD BRANCH 9,SHWSYS1,Demand
     Plant Loop Connector Nodes,   9,Splitter,SHWSYS1 DEMAND SPLITTER,SHWSYS1 DEMAND INLET PIPE-SHWSYS1 DEMAND MIXER,PERIMETER_BOT_ZN_2 SUB CAT WATER INLET NODE,SHWSYS1,Demand
     Plant Loop Connector Branches,10,Splitter,SHWSYS1 DEMAND SPLITTER,SHWSYS1 DEMAND INLET BRANCH,SHWSYS1 DEMAND LOAD BRANCH 10,SHWSYS1,Demand
     Plant Loop Connector Nodes,   10,Splitter,SHWSYS1 DEMAND SPLITTER,SHWSYS1 DEMAND INLET PIPE-SHWSYS1 DEMAND MIXER,PERIMETER_BOT_ZN_1 SUB CAT WATER INLET NODE,SHWSYS1,Demand
     Plant Loop Connector Branches,11,Splitter,SHWSYS1 DEMAND SPLITTER,SHWSYS1 DEMAND INLET BRANCH,SHWSYS1 DEMAND LOAD BRANCH 11,SHWSYS1,Demand
     Plant Loop Connector Nodes,   11,Splitter,SHWSYS1 DEMAND SPLITTER,SHWSYS1 DEMAND INLET PIPE-SHWSYS1 DEMAND MIXER,PERIMETER_BOT_ZN_4 SUB CAT WATER INLET NODE,SHWSYS1,Demand
     Plant Loop Connector Branches,12,Splitter,SHWSYS1 DEMAND SPLITTER,SHWSYS1 DEMAND INLET BRANCH,SHWSYS1 DEMAND LOAD BRANCH 12,SHWSYS1,Demand
     Plant Loop Connector Nodes,   12,Splitter,SHWSYS1 DEMAND SPLITTER,SHWSYS1 DEMAND INLET PIPE-SHWSYS1 DEMAND MIXER,PERIMETER_MID_ZN_3 SUB CAT WATER INLET NODE,SHWSYS1,Demand
     Plant Loop Connector Branches,13,Splitter,SHWSYS1 DEMAND SPLITTER,SHWSYS1 DEMAND INLET BRANCH,SHWSYS1 DEMAND LOAD BRANCH 13,SHWSYS1,Demand
     Plant Loop Connector Nodes,   13,Splitter,SHWSYS1 DEMAND SPLITTER,SHWSYS1 DEMAND INLET PIPE-SHWSYS1 DEMAND MIXER,PERIMETER_MID_ZN_2 SUB CAT WATER INLET NODE,SHWSYS1,Demand
     Plant Loop Connector Branches,14,Splitter,SHWSYS1 DEMAND SPLITTER,SHWSYS1 DEMAND INLET BRANCH,SHWSYS1 DEMAND LOAD BRANCH 14,SHWSYS1,Demand
     Plant Loop Connector Nodes,   14,Splitter,SHWSYS1 DEMAND SPLITTER,SHWSYS1 DEMAND INLET PIPE-SHWSYS1 DEMAND MIXER,PERIMETER_MID_ZN_1 SUB CAT WATER INLET NODE,SHWSYS1,Demand
     Plant Loop Connector Branches,15,Splitter,SHWSYS1 DEMAND SPLITTER,SHWSYS1 DEMAND INLET BRANCH,SHWSYS1 DEMAND LOAD BRANCH 15,SHWSYS1,Demand
     Plant Loop Connector Nodes,   15,Splitter,SHWSYS1 DEMAND SPLITTER,SHWSYS1 DEMAND INLET PIPE-SHWSYS1 DEMAND MIXER,PERIMETER_MID_ZN_4 SUB CAT WATER INLET NODE,SHWSYS1,Demand
     Plant Loop Connector Branches,16,Splitter,SHWSYS1 DEMAND SPLITTER,SHWSYS1 DEMAND INLET BRANCH,SHWSYS1 DEMAND BYPASS BRANCH,SHWSYS1,Demand
     Plant Loop Connector Nodes,   16,Splitter,SHWSYS1 DEMAND SPLITTER,SHWSYS1 DEMAND INLET PIPE-SHWSYS1 DEMAND MIXER,SHWSYS1 DEMAND BYPASS PIPE INLET NODE,SHWSYS1,Demand
   Plant Loop Connector,Mixer,SHWSYS1 DEMAND MIXER,SHWSYS1,Demand,16
     Plant Loop Connector Branches,1,Mixer,SHWSYS1 DEMAND MIXER,SHWSYS1 DEMAND LOAD BRANCH 1,SHWSYS1 DEMAND OUTLET BRANCH,SHWSYS1,Demand
     Plant Loop Connector Nodes,   1,Mixer,SHWSYS1 DEMAND MIXER,CORE_BOTTOM SUB CAT WATER OUTLET NODE,SHWSYS1 DEMAND MIXER-SHWSYS1 DEMAND OUTLET PIPE,SHWSYS1,Demand
     Plant Loop Connector Branches,2,Mixer,SHWSYS1 DEMAND MIXER,SHWSYS1 DEMAND LOAD BRANCH 2,SHWSYS1 DEMAND OUTLET BRANCH,SHWSYS1,Demand
     Plant Loop Connector Nodes,   2,Mixer,SHWSYS1 DEMAND MIXER,CORE_MID SUB CAT WATER OUTLET NODE,SHWSYS1 DEMAND MIXER-SHWSYS1 DEMAND OUTLET PIPE,SHWSYS1,Demand
     Plant Loop Connector Branches,3,Mixer,SHWSYS1 DEMAND MIXER,SHWSYS1 DEMAND LOAD BRANCH 3,SHWSYS1 DEMAND OUTLET BRANCH,SHWSYS1,Demand
     Plant Loop Connector Nodes,   3,Mixer,SHWSYS1 DEMAND MIXER,CORE_TOP SUB CAT WATER OUTLET NODE,SHWSYS1 DEMAND MIXER-SHWSYS1 DEMAND OUTLET PIPE,SHWSYS1,Demand
     Plant Loop Connector Branches,4,Mixer,SHWSYS1 DEMAND MIXER,SHWSYS1 DEMAND LOAD BRANCH 4,SHWSYS1 DEMAND OUTLET BRANCH,SHWSYS1,Demand
     Plant Loop Connector Nodes,   4,Mixer,SHWSYS1 DEMAND MIXER,PERIMETER_TOP_ZN_3 SUB CAT WATER OUTLET NODE,SHWSYS1 DEMAND MIXER-SHWSYS1 DEMAND OUTLET PIPE,SHWSYS1,Demand
     Plant Loop Connector Branches,5,Mixer,SHWSYS1 DEMAND MIXER,SHWSYS1 DEMAND LOAD BRANCH 5,SHWSYS1 DEMAND OUTLET BRANCH,SHWSYS1,Demand
     Plant Loop Connector Nodes,   5,Mixer,SHWSYS1 DEMAND MIXER,PERIMETER_TOP_ZN_2 SUB CAT WATER OUTLET NODE,SHWSYS1 DEMAND MIXER-SHWSYS1 DEMAND OUTLET PIPE,SHWSYS1,Demand
     Plant Loop Connector Branches,6,Mixer,SHWSYS1 DEMAND MIXER,SHWSYS1 DEMAND LOAD BRANCH 6,SHWSYS1 DEMAND OUTLET BRANCH,SHWSYS1,Demand
     Plant Loop Connector Nodes,   6,Mixer,SHWSYS1 DEMAND MIXER,PERIMETER_TOP_ZN_1 SUB CAT WATER OUTLET NODE,SHWSYS1 DEMAND MIXER-SHWSYS1 DEMAND OUTLET PIPE,SHWSYS1,Demand
     Plant Loop Connector Branches,7,Mixer,SHWSYS1 DEMAND MIXER,SHWSYS1 DEMAND LOAD BRANCH 7,SHWSYS1 DEMAND OUTLET BRANCH,SHWSYS1,Demand
     Plant Loop Connector Nodes,   7,Mixer,SHWSYS1 DEMAND MIXER,PERIMETER_TOP_ZN_4 SUB CAT WATER OUTLET NODE,SHWSYS1 DEMAND MIXER-SHWSYS1 DEMAND OUTLET PIPE,SHWSYS1,Demand
     Plant Loop Connector Branches,8,Mixer,SHWSYS1 DEMAND MIXER,SHWSYS1 DEMAND LOAD BRANCH 8,SHWSYS1 DEMAND OUTLET BRANCH,SHWSYS1,Demand
     Plant Loop Connector Nodes,   8,Mixer,SHWSYS1 DEMAND MIXER,PERIMETER_BOT_ZN_3 SUB CAT WATER OUTLET NODE,SHWSYS1 DEMAND MIXER-SHWSYS1 DEMAND OUTLET PIPE,SHWSYS1,Demand
     Plant Loop Connector Branches,9,Mixer,SHWSYS1 DEMAND MIXER,SHWSYS1 DEMAND LOAD BRANCH 9,SHWSYS1 DEMAND OUTLET BRANCH,SHWSYS1,Demand
     Plant Loop Connector Nodes,   9,Mixer,SHWSYS1 DEMAND MIXER,PERIMETER_BOT_ZN_2 SUB CAT WATER OUTLET NODE,SHWSYS1 DEMAND MIXER-SHWSYS1 DEMAND OUTLET PIPE,SHWSYS1,Demand
     Plant Loop Connector Branches,10,Mixer,SHWSYS1 DEMAND MIXER,SHWSYS1 DEMAND LOAD BRANCH 10,SHWSYS1 DEMAND OUTLET BRANCH,SHWSYS1,Demand
     Plant Loop Connector Nodes,   10,Mixer,SHWSYS1 DEMAND MIXER,PERIMETER_BOT_ZN_1 SUB CAT WATER OUTLET NODE,SHWSYS1 DEMAND MIXER-SHWSYS1 DEMAND OUTLET PIPE,SHWSYS1,Demand
     Plant Loop Connector Branches,11,Mixer,SHWSYS1 DEMAND MIXER,SHWSYS1 DEMAND LOAD BRANCH 11,SHWSYS1 DEMAND OUTLET BRANCH,SHWSYS1,Demand
     Plant Loop Connector Nodes,   11,Mixer,SHWSYS1 DEMAND MIXER,PERIMETER_BOT_ZN_4 SUB CAT WATER OUTLET NODE,SHWSYS1 DEMAND MIXER-SHWSYS1 DEMAND OUTLET PIPE,SHWSYS1,Demand
     Plant Loop Connector Branches,12,Mixer,SHWSYS1 DEMAND MIXER,SHWSYS1 DEMAND LOAD BRANCH 12,SHWSYS1 DEMAND OUTLET BRANCH,SHWSYS1,Demand
     Plant Loop Connector Nodes,   12,Mixer,SHWSYS1 DEMAND MIXER,PERIMETER_MID_ZN_3 SUB CAT WATER OUTLET NODE,SHWSYS1 DEMAND MIXER-SHWSYS1 DEMAND OUTLET PIPE,SHWSYS1,Demand
     Plant Loop Connector Branches,13,Mixer,SHWSYS1 DEMAND MIXER,SHWSYS1 DEMAND LOAD BRANCH 13,SHWSYS1 DEMAND OUTLET BRANCH,SHWSYS1,Demand
     Plant Loop Connector Nodes,   13,Mixer,SHWSYS1 DEMAND MIXER,PERIMETER_MID_ZN_2 SUB CAT WATER OUTLET NODE,SHWSYS1 DEMAND MIXER-SHWSYS1 DEMAND OUTLET PIPE,SHWSYS1,Demand
     Plant Loop Connector Branches,14,Mixer,SHWSYS1 DEMAND MIXER,SHWSYS1 DEMAND LOAD BRANCH 14,SHWSYS1 DEMAND OUTLET BRANCH,SHWSYS1,Demand
     Plant Loop Connector Nodes,   14,Mixer,SHWSYS1 DEMAND MIXER,PERIMETER_MID_ZN_1 SUB CAT WATER OUTLET NODE,SHWSYS1 DEMAND MIXER-SHWSYS1 DEMAND OUTLET PIPE,SHWSYS1,Demand
     Plant Loop Connector Branches,15,Mixer,SHWSYS1 DEMAND MIXER,SHWSYS1 DEMAND LOAD BRANCH 15,SHWSYS1 DEMAND OUTLET BRANCH,SHWSYS1,Demand
     Plant Loop Connector Nodes,   15,Mixer,SHWSYS1 DEMAND MIXER,PERIMETER_MID_ZN_4 SUB CAT WATER OUTLET NODE,SHWSYS1 DEMAND MIXER-SHWSYS1 DEMAND OUTLET PIPE,SHWSYS1,Demand
     Plant Loop Connector Branches,16,Mixer,SHWSYS1 DEMAND MIXER,SHWSYS1 DEMAND BYPASS BRANCH,SHWSYS1 DEMAND OUTLET BRANCH,SHWSYS1,Demand
     Plant Loop Connector Nodes,   16,Mixer,SHWSYS1 DEMAND MIXER,SHWSYS1 DEMAND BYPASS PIPE OUTLET NODE,SHWSYS1 DEMAND MIXER-SHWSYS1 DEMAND OUTLET PIPE,SHWSYS1,Demand
 Plant Loop,SHWSYS1,Supply,SHWSYS1 SUPPLY INLET NODE,SHWSYS1 SUPPLY OUTLET NODE,SHWSYS1 SUPPLY BRANCHES,SHWSYS1 SUPPLY CONNECTORS
   Plant Loop Connector,Splitter,SHWSYS1 SUPPLY SPLITTER,SHWSYS1,Supply,2
     Plant Loop Connector Branches,1,Splitter,SHWSYS1 SUPPLY SPLITTER,SHWSYS1 SUPPLY INLET BRANCH,SHWSYS1 SUPPLY EQUIPMENT BRANCH,SHWSYS1,Supply
     Plant Loop Connector Nodes,   1,Splitter,SHWSYS1 SUPPLY SPLITTER,SHWSYS1 PUMP-SHWSYS1 WATER HEATERNODEVIACONNECTOR,SHWSYS1 PUMP-SHWSYS1 WATER HEATERNODE,SHWSYS1,Supply
     Plant Loop Connector Branches,2,Splitter,SHWSYS1 SUPPLY SPLITTER,SHWSYS1 SUPPLY INLET BRANCH,SHWSYS1 SUPPLY EQUIPMENT BYPASS BRANCH,SHWSYS1,Supply
     Plant Loop Connector Nodes,   2,Splitter,SHWSYS1 SUPPLY SPLITTER,SHWSYS1 PUMP-SHWSYS1 WATER HEATERNODEVIACONNECTOR,SHWSYS1 SUPPLY EQUIP BYPASS INLET NODE,SHWSYS1,Supply
   Plant Loop Connector,Mixer,SHWSYS1 SUPPLY MIXER,SHWSYS1,Supply,2
     Plant Loop Connector Branches,1,Mixer,SHWSYS1 SUPPLY MIXER,SHWSYS1 SUPPLY EQUIPMENT BRANCH,SHWSYS1 SUPPLY OUTLET BRANCH,SHWSYS1,Supply
     Plant Loop Connector Nodes,   1,Mixer,SHWSYS1 SUPPLY MIXER,SHWSYS1 SUPPLY EQUIPMENT OUTLET NODE,SHWSYS1 SUPPLY MIXER-SHWSYS1 SUPPLY OUTLET PIPE,SHWSYS1,Supply
     Plant Loop Connector Branches,2,Mixer,SHWSYS1 SUPPLY MIXER,SHWSYS1 SUPPLY EQUIPMENT BYPASS BRANCH,SHWSYS1 SUPPLY OUTLET BRANCH,SHWSYS1,Supply
     Plant Loop Connector Nodes,   2,Mixer,SHWSYS1 SUPPLY MIXER,SHWSYS1 SUPPLY EQUIP BYPASS OUTLET NODE,SHWSYS1 SUPPLY MIXER-SHWSYS1 SUPPLY OUTLET PIPE,SHWSYS1,Supply
 Plant Loop Supply Connection,SHWSYS1,SHWSYS1 SUPPLY OUTLET NODE,SHWSYS1 DEMAND INLET NODE
 Plant Loop Return Connection,SHWSYS1,SHWSYS1 DEMAND OUTLET NODE,SHWSYS1 SUPPLY INLET NODE
! ===============================================================
! <# Condenser Loops>,<Number of Condenser Loops>
 #Condenser Loops,0
! <Condenser Loop>,<Condenser Loop Name>,<Loop Type>,<Inlet Node Name>,<Outlet Node Name>,<Branch List>,<Connector List>
! <Condenser Loop Connector>,<Connector Type>,<Connector Name>,<Loop Name>,<Loop Type>,<Number of Inlets/Outlets>
! <Condenser Loop Connector Branches>,<Connector Node Count>,<Connector Type>,<Connector Name>,<Inlet Branch>,<Outlet Branch>,<Loop Name>,<Loop Type>
! <Condenser Loop Connector Nodes>,<Connector Node Count>,<Connector Type>,<Connector Name>,<Inlet Node>,<Outlet Node>,<Loop Name>,<Loop Type>
! <Condenser Loop Supply Connection>,<Condenser Loop Name>,<Supply Side Outlet Node Name>,<Demand Side Inlet Node Name>
! <Condenser Loop Return Connection>,<Condenser Loop Name>,<Demand Side Outlet Node Name>,<Supply Side Inlet Node Name>
! ===============================================================
! <# Controlled Zones>,<Number of Controlled Zones>
 #Controlled Zones,15
! <Controlled Zone>,<Controlled Zone Name>,<Equip List Name>,<Control List Name>,<Zone Node Name>,<# Inlet Nodes>,<# Exhaust Nodes>,<# Return Nodes>
! <Controlled Zone Inlet>,<Inlet Node Count>,<Controlled Zone Name>,<Supply Air Inlet Node Name>,<SD Sys:Cooling/Heating [DD:Cooling] Inlet Node Name>,<DD Sys:Heating Inlet Node Name>
! <Controlled Zone Exhaust>,<Exhaust Node Count>,<Controlled Zone Name>,<Exhaust Air Node Name>
 Controlled Zone,CORE_BOTTOM,CORE_BOTTOM EQUIPMENT,,CORE_BOTTOM AIR NODE,1,0,1
   Controlled Zone Inlet,1,CORE_BOTTOM,CORE_BOTTOM VAV BOX OUTLET NODE,CORE_BOTTOM VAV BOX INLET NODE,N/A
   Controlled Zone Return,1,CORE_BOTTOM,CORE_BOTTOM RETURN AIR NODE
 Controlled Zone,CORE_MID,CORE_MID EQUIPMENT,,CORE_MID AIR NODE,1,0,1
   Controlled Zone Inlet,1,CORE_MID,CORE_MID VAV BOX OUTLET NODE,CORE_MID VAV BOX INLET NODE,N/A
   Controlled Zone Return,1,CORE_MID,CORE_MID RETURN AIR NODE
 Controlled Zone,CORE_TOP,CORE_TOP EQUIPMENT,,CORE_TOP AIR NODE,1,0,1
   Controlled Zone Inlet,1,CORE_TOP,CORE_TOP VAV BOX OUTLET NODE,CORE_TOP VAV BOX INLET NODE,N/A
   Controlled Zone Return,1,CORE_TOP,CORE_TOP RETURN AIR NODE
 Controlled Zone,PERIMETER_TOP_ZN_3,PERIMETER_TOP_ZN_3 EQUIPMENT,,PERIMETER_TOP_ZN_3 AIR NODE,1,0,1
   Controlled Zone Inlet,1,PERIMETER_TOP_ZN_3,PERIMETER_TOP_ZN_3 VAV BOX OUTLET NODE,PERIMETER_TOP_ZN_3 VAV BOX INLET NODE,N/A
   Controlled Zone Return,1,PERIMETER_TOP_ZN_3,PERIMETER_TOP_ZN_3 RETURN AIR NODE
 Controlled Zone,PERIMETER_TOP_ZN_2,PERIMETER_TOP_ZN_2 EQUIPMENT,,PERIMETER_TOP_ZN_2 AIR NODE,1,0,1
   Controlled Zone Inlet,1,PERIMETER_TOP_ZN_2,PERIMETER_TOP_ZN_2 VAV BOX OUTLET NODE,PERIMETER_TOP_ZN_2 VAV BOX INLET NODE,N/A
   Controlled Zone Return,1,PERIMETER_TOP_ZN_2,PERIMETER_TOP_ZN_2 RETURN AIR NODE
 Controlled Zone,PERIMETER_TOP_ZN_1,PERIMETER_TOP_ZN_1 EQUIPMENT,,PERIMETER_TOP_ZN_1 AIR NODE,1,0,1
   Controlled Zone Inlet,1,PERIMETER_TOP_ZN_1,PERIMETER_TOP_ZN_1 VAV BOX OUTLET NODE,PERIMETER_TOP_ZN_1 VAV BOX INLET NODE,N/A
   Controlled Zone Return,1,PERIMETER_TOP_ZN_1,PERIMETER_TOP_ZN_1 RETURN AIR NODE
 Controlled Zone,PERIMETER_TOP_ZN_4,PERIMETER_TOP_ZN_4 EQUIPMENT,,PERIMETER_TOP_ZN_4 AIR NODE,1,0,1
   Controlled Zone Inlet,1,PERIMETER_TOP_ZN_4,PERIMETER_TOP_ZN_4 VAV BOX OUTLET NODE,PERIMETER_TOP_ZN_4 VAV BOX INLET NODE,N/A
   Controlled Zone Return,1,PERIMETER_TOP_ZN_4,PERIMETER_TOP_ZN_4 RETURN AIR NODE
 Controlled Zone,PERIMETER_BOT_ZN_3,PERIMETER_BOT_ZN_3 EQUIPMENT,,PERIMETER_BOT_ZN_3 AIR NODE,1,0,1
   Controlled Zone Inlet,1,PERIMETER_BOT_ZN_3,PERIMETER_BOT_ZN_3 VAV BOX OUTLET NODE,PERIMETER_BOT_ZN_3 VAV BOX INLET NODE,N/A
   Controlled Zone Return,1,PERIMETER_BOT_ZN_3,PERIMETER_BOT_ZN_3 RETURN AIR NODE
 Controlled Zone,PERIMETER_BOT_ZN_2,PERIMETER_BOT_ZN_2 EQUIPMENT,,PERIMETER_BOT_ZN_2 AIR NODE,1,0,1
   Controlled Zone Inlet,1,PERIMETER_BOT_ZN_2,PERIMETER_BOT_ZN_2 VAV BOX OUTLET NODE,PERIMETER_BOT_ZN_2 VAV BOX INLET NODE,N/A
   Controlled Zone Return,1,PERIMETER_BOT_ZN_2,PERIMETER_BOT_ZN_2 RETURN AIR NODE
 Controlled Zone,PERIMETER_BOT_ZN_1,PERIMETER_BOT_ZN_1 EQUIPMENT,,PERIMETER_BOT_ZN_1 AIR NODE,1,0,1
   Controlled Zone Inlet,1,PERIMETER_BOT_ZN_1,PERIMETER_BOT_ZN_1 VAV BOX OUTLET NODE,PERIMETER_BOT_ZN_1 VAV BOX INLET NODE,N/A
   Controlled Zone Return,1,PERIMETER_BOT_ZN_1,PERIMETER_BOT_ZN_1 RETURN AIR NODE
 Controlled Zone,PERIMETER_BOT_ZN_4,PERIMETER_BOT_ZN_4 EQUIPMENT,,PERIMETER_BOT_ZN_4 AIR NODE,1,0,1
   Controlled Zone Inlet,1,PERIMETER_BOT_ZN_4,PERIMETER_BOT_ZN_4 VAV BOX OUTLET NODE,PERIMETER_BOT_ZN_4 VAV BOX INLET NODE,N/A
   Controlled Zone Return,1,PERIMETER_BOT_ZN_4,PERIMETER_BOT_ZN_4 RETURN AIR NODE
 Controlled Zone,PERIMETER_MID_ZN_3,PERIMETER_MID_ZN_3 EQUIPMENT,,PERIMETER_MID_ZN_3 AIR NODE,1,0,1
   Controlled Zone Inlet,1,PERIMETER_MID_ZN_3,PERIMETER_MID_ZN_3 VAV BOX OUTLET NODE,PERIMETER_MID_ZN_3 VAV BOX INLET NODE,N/A
   Controlled Zone Return,1,PERIMETER_MID_ZN_3,PERIMETER_MID_ZN_3 RETURN AIR NODE
 Controlled Zone,PERIMETER_MID_ZN_2,PERIMETER_MID_ZN_2 EQUIPMENT,,PERIMETER_MID_ZN_2 AIR NODE,1,0,1
   Controlled Zone Inlet,1,PERIMETER_MID_ZN_2,PERIMETER_MID_ZN_2 VAV BOX OUTLET NODE,PERIMETER_MID_ZN_2 VAV BOX INLET NODE,N/A
   Controlled Zone Return,1,PERIMETER_MID_ZN_2,PERIMETER_MID_ZN_2 RETURN AIR NODE
 Controlled Zone,PERIMETER_MID_ZN_1,PERIMETER_MID_ZN_1 EQUIPMENT,,PERIMETER_MID_ZN_1 AIR NODE,1,0,1
   Controlled Zone Inlet,1,PERIMETER_MID_ZN_1,PERIMETER_MID_ZN_1 VAV BOX OUTLET NODE,PERIMETER_MID_ZN_1 VAV BOX INLET NODE,N/A
   Controlled Zone Return,1,PERIMETER_MID_ZN_1,PERIMETER_MID_ZN_1 RETURN AIR NODE
 Controlled Zone,PERIMETER_MID_ZN_4,PERIMETER_MID_ZN_4 EQUIPMENT,,PERIMETER_MID_ZN_4 AIR NODE,1,0,1
   Controlled Zone Inlet,1,PERIMETER_MID_ZN_4,PERIMETER_MID_ZN_4 VAV BOX OUTLET NODE,PERIMETER_MID_ZN_4 VAV BOX INLET NODE,N/A
   Controlled Zone Return,1,PERIMETER_MID_ZN_4,PERIMETER_MID_ZN_4 RETURN AIR NODE
! ===============================================================
! <#Zone Equipment Lists>,<Number of Zone Equipment Lists>
 #Zone Equipment Lists,15
! <Zone Equipment List>,<Zone Equipment List Count>,<Zone Equipment List Name>,<Zone Name>,<Number of Components>
! <Zone Equipment Component>,<Component Count>,<Component Type>,<Component Name>,<Zone Name>,<Heating Priority>,<Cooling Priority>
 Zone Equipment List,1,CORE_BOTTOM EQUIPMENT,CORE_BOTTOM,1
   Zone Equipment Component,1,ZONEHVAC:AIRDISTRIBUTIONUNIT,CORE_BOTTOM VAV BOX,CORE_BOTTOM,1,1
 Zone Equipment List,5,CORE_MID EQUIPMENT,CORE_MID,1
   Zone Equipment Component,1,ZONEHVAC:AIRDISTRIBUTIONUNIT,CORE_MID VAV BOX,CORE_MID,1,1
 Zone Equipment List,6,CORE_TOP EQUIPMENT,CORE_TOP,1
   Zone Equipment Component,1,ZONEHVAC:AIRDISTRIBUTIONUNIT,CORE_TOP VAV BOX,CORE_TOP,1,1
 Zone Equipment List,7,PERIMETER_TOP_ZN_3 EQUIPMENT,PERIMETER_TOP_ZN_3,1
   Zone Equipment Component,1,ZONEHVAC:AIRDISTRIBUTIONUNIT,PERIMETER_TOP_ZN_3 VAV BOX,PERIMETER_TOP_ZN_3,1,1
 Zone Equipment List,8,PERIMETER_TOP_ZN_2 EQUIPMENT,PERIMETER_TOP_ZN_2,1
   Zone Equipment Component,1,ZONEHVAC:AIRDISTRIBUTIONUNIT,PERIMETER_TOP_ZN_2 VAV BOX,PERIMETER_TOP_ZN_2,1,1
 Zone Equipment List,9,PERIMETER_TOP_ZN_1 EQUIPMENT,PERIMETER_TOP_ZN_1,1
   Zone Equipment Component,1,ZONEHVAC:AIRDISTRIBUTIONUNIT,PERIMETER_TOP_ZN_1 VAV BOX,PERIMETER_TOP_ZN_1,1,1
 Zone Equipment List,10,PERIMETER_TOP_ZN_4 EQUIPMENT,PERIMETER_TOP_ZN_4,1
   Zone Equipment Component,1,ZONEHVAC:AIRDISTRIBUTIONUNIT,PERIMETER_TOP_ZN_4 VAV BOX,PERIMETER_TOP_ZN_4,1,1
 Zone Equipment List,11,PERIMETER_BOT_ZN_3 EQUIPMENT,PERIMETER_BOT_ZN_3,1
   Zone Equipment Component,1,ZONEHVAC:AIRDISTRIBUTIONUNIT,PERIMETER_BOT_ZN_3 VAV BOX,PERIMETER_BOT_ZN_3,1,1
 Zone Equipment List,12,PERIMETER_BOT_ZN_2 EQUIPMENT,PERIMETER_BOT_ZN_2,1
   Zone Equipment Component,1,ZONEHVAC:AIRDISTRIBUTIONUNIT,PERIMETER_BOT_ZN_2 VAV BOX,PERIMETER_BOT_ZN_2,1,1
 Zone Equipment List,13,PERIMETER_BOT_ZN_1 EQUIPMENT,PERIMETER_BOT_ZN_1,1
   Zone Equipment Component,1,ZONEHVAC:AIRDISTRIBUTIONUNIT,PERIMETER_BOT_ZN_1 VAV BOX,PERIMETER_BOT_ZN_1,1,1
 Zone Equipment List,14,PERIMETER_BOT_ZN_4 EQUIPMENT,PERIMETER_BOT_ZN_4,1
   Zone Equipment Component,1,ZONEHVAC:AIRDISTRIBUTIONUNIT,PERIMETER_BOT_ZN_4 VAV BOX,PERIMETER_BOT_ZN_4,1,1
 Zone Equipment List,15,PERIMETER_MID_ZN_3 EQUIPMENT,PERIMETER_MID_ZN_3,1
   Zone Equipment Component,1,ZONEHVAC:AIRDISTRIBUTIONUNIT,PERIMETER_MID_ZN_3 VAV BOX,PERIMETER_MID_ZN_3,1,1
 Zone Equipment List,16,PERIMETER_MID_ZN_2 EQUIPMENT,PERIMETER_MID_ZN_2,1
   Zone Equipment Component,1,ZONEHVAC:AIRDISTRIBUTIONUNIT,PERIMETER_MID_ZN_2 VAV BOX,PERIMETER_MID_ZN_2,1,1
 Zone Equipment List,17,PERIMETER_MID_ZN_1 EQUIPMENT,PERIMETER_MID_ZN_1,1
   Zone Equipment Component,1,ZONEHVAC:AIRDISTRIBUTIONUNIT,PERIMETER_MID_ZN_1 VAV BOX,PERIMETER_MID_ZN_1,1,1
 Zone Equipment List,18,PERIMETER_MID_ZN_4 EQUIPMENT,PERIMETER_MID_ZN_4,1
   Zone Equipment Component,1,ZONEHVAC:AIRDISTRIBUTIONUNIT,PERIMETER_MID_ZN_4 VAV BOX,PERIMETER_MID_ZN_4,1,1
! ===============================================================
! <#AirLoopHVACs>,<Number of AirLoopHVACs>
 #AirLoopHVACs,3
! <AirLoopHVAC>,<Air Loop Name>,<# Return Nodes>,<# Supply Nodes>,<# Zones Cooled>,<# Zones Heated>,<Outdoor Air Used>
! <AirLoop Return Connections>,<Connection Count>,<AirLoopHVAC Name>,<Zn Eqp Return Node #>,<Zn Eqp Return Node Name>,<AirLoop Return Node #>,<Air Loop Return Node Name>
! <AirLoop Supply Connections>,<Connection Count>,<AirLoopHVAC Name>,<Zn Eqp Supply Node #>,<Zn Eqp Supply Node Name>,<AirLoop Supply Node #>,<Air Loop Supply Node Name>
! <Cooled Zone Info>,<Cooled Zone Count>,<Cooled Zone Name>,<Cooled Zone Inlet Node #>,<Cooled Zone Inlet Node Name>,<AirLoopHVAC Name>
! <Heated Zone Info>,<Heated Zone Count>,<Heated Zone Name>,<Heated Zone Inlet Node #>,<Heated Zone Inlet Node Name>,<AirLoopHVAC Name>
! <Outdoor Air Connections>,<OA Inlet Node #>,<OA Return Air Inlet Node Name>,<OA Outlet Node #>,<OA Mixed Air Outlet Node Name>,<AirLoopHVAC Name>
! <AirLoopHVAC Connector>,<Connector Type>,<Connector Name>,<Loop Name>,<Loop Type>,<Number of Inlets/Outlets>
! <AirLoopHVAC Connector Branches>,<Connector Node Count>,<Connector Type>,<Connector Name>,<Inlet Branch>,<Outlet Branch>,<Loop Name>,<Loop Type>
! <AirLoopHVAC Connector Nodes>,<Connector Node Count>,<Connector Type>,<Connector Name>,<Inlet Node>,<Outlet Node>,<Loop Name>,<Loop Type>
 AirLoopHVAC,PACU_VAV_BOT,1,1,5,0,Yes
   AirLoop Return Connections,1,PACU_VAV_BOT,111,PACU_VAV_BOT ZONE EQUIPMENT OUTLET NODE,19,PACU_VAV_BOT SUPPLY EQUIPMENT INLET NODE
   AirLoop Supply Connections,1,PACU_VAV_BOT,108,PACU_VAV_BOT ZONE EQUIPMENT INLET NODE,23,PACU_VAV_BOT SUPPLY EQUIPMENT OUTLET NODE
   Cooled Zone Info,1,CORE_BOTTOM,1,CORE_BOTTOM VAV BOX OUTLET NODE,PACU_VAV_BOT
   Cooled Zone Info,2,PERIMETER_BOT_ZN_3,8,PERIMETER_BOT_ZN_3 VAV BOX OUTLET NODE,PACU_VAV_BOT
   Cooled Zone Info,3,PERIMETER_BOT_ZN_2,9,PERIMETER_BOT_ZN_2 VAV BOX OUTLET NODE,PACU_VAV_BOT
   Cooled Zone Info,4,PERIMETER_BOT_ZN_1,10,PERIMETER_BOT_ZN_1 VAV BOX OUTLET NODE,PACU_VAV_BOT
   Cooled Zone Info,5,PERIMETER_BOT_ZN_4,11,PERIMETER_BOT_ZN_4 VAV BOX OUTLET NODE,PACU_VAV_BOT
   Outdoor Air Connections,19,PACU_VAV_BOT SUPPLY EQUIPMENT INLET NODE,20,PACU_VAV_BOT_OA-PACU_VAV_BOT_COOLCNODE,PACU_VAV_BOT
 AirLoopHVAC,PACU_VAV_MID,1,1,5,0,Yes
   AirLoop Return Connections,1,PACU_VAV_MID,112,PACU_VAV_MID ZONE EQUIPMENT OUTLET NODE,24,PACU_VAV_MID SUPPLY EQUIPMENT INLET NODE
   AirLoop Supply Connections,1,PACU_VAV_MID,109,PACU_VAV_MID ZONE EQUIPMENT INLET NODE,28,PACU_VAV_MID SUPPLY EQUIPMENT OUTLET NODE
   Cooled Zone Info,1,CORE_MID,2,CORE_MID VAV BOX OUTLET NODE,PACU_VAV_MID
   Cooled Zone Info,2,PERIMETER_MID_ZN_3,12,PERIMETER_MID_ZN_3 VAV BOX OUTLET NODE,PACU_VAV_MID
   Cooled Zone Info,3,PERIMETER_MID_ZN_2,13,PERIMETER_MID_ZN_2 VAV BOX OUTLET NODE,PACU_VAV_MID
   Cooled Zone Info,4,PERIMETER_MID_ZN_1,14,PERIMETER_MID_ZN_1 VAV BOX OUTLET NODE,PACU_VAV_MID
   Cooled Zone Info,5,PERIMETER_MID_ZN_4,15,PERIMETER_MID_ZN_4 VAV BOX OUTLET NODE,PACU_VAV_MID
   Outdoor Air Connections,24,PACU_VAV_MID SUPPLY EQUIPMENT INLET NODE,25,PACU_VAV_MID_OA-PACU_VAV_MID_COOLCNODE,PACU_VAV_MID
 AirLoopHVAC,PACU_VAV_TOP,1,1,5,0,Yes
   AirLoop Return Connections,1,PACU_VAV_TOP,113,PACU_VAV_TOP ZONE EQUIPMENT OUTLET NODE,29,PACU_VAV_TOP SUPPLY EQUIPMENT INLET NODE
   AirLoop Supply Connections,1,PACU_VAV_TOP,110,PACU_VAV_TOP ZONE EQUIPMENT INLET NODE,33,PACU_VAV_TOP SUPPLY EQUIPMENT OUTLET NODE
   Cooled Zone Info,1,CORE_TOP,3,CORE_TOP VAV BOX OUTLET NODE,PACU_VAV_TOP
   Cooled Zone Info,2,PERIMETER_TOP_ZN_3,4,PERIMETER_TOP_ZN_3 VAV BOX OUTLET NODE,PACU_VAV_TOP
   Cooled Zone Info,3,PERIMETER_TOP_ZN_2,5,PERIMETER_TOP_ZN_2 VAV BOX OUTLET NODE,PACU_VAV_TOP
   Cooled Zone Info,4,PERIMETER_TOP_ZN_1,6,PERIMETER_TOP_ZN_1 VAV BOX OUTLET NODE,PACU_VAV_TOP
   Cooled Zone Info,5,PERIMETER_TOP_ZN_4,7,PERIMETER_TOP_ZN_4 VAV BOX OUTLET NODE,PACU_VAV_TOP
   Outdoor Air Connections,29,PACU_VAV_TOP SUPPLY EQUIPMENT INLET NODE,30,PACU_VAV_TOP_OA-PACU_VAV_TOP_COOLCNODE,PACU_VAV_TOP
! ===============================================================
! <#Parent Node Connections>,<Number of Parent Node Connections>
 #Parent Node Connections,121
! <Parent Node Connection>,<Node Name>,<Node ObjectType>,<Node ObjectName>,<Node ConnectionType>,<Node FluidStream>
 Parent Node Connection,PACU_VAV_BOT SUPPLY EQUIPMENT INLET NODE,BRANCH,PACU_VAV_BOT AIR LOOP MAIN BRANCH,Inlet,1
 Parent Node Connection,PACU_VAV_BOT_OA-PACU_VAV_BOT_COOLCNODE,BRANCH,PACU_VAV_BOT AIR LOOP MAIN BRANCH,Internal,1
 Parent Node Connection,PACU_VAV_BOT_COOLC-PACU_VAV_BOT_HEATCNODE,BRANCH,PACU_VAV_BOT AIR LOOP MAIN BRANCH,Internal,1
 Parent Node Connection,PACU_VAV_BOT_HEATC-PACU_VAV_BOT FANNODE,BRANCH,PACU_VAV_BOT AIR LOOP MAIN BRANCH,Internal,1
 Parent Node Connection,PACU_VAV_BOT SUPPLY EQUIPMENT OUTLET NODE,BRANCH,PACU_VAV_BOT AIR LOOP MAIN BRANCH,Outlet,1
 Parent Node Connection,PACU_VAV_MID SUPPLY EQUIPMENT INLET NODE,BRANCH,PACU_VAV_MID AIR LOOP MAIN BRANCH,Inlet,1
 Parent Node Connection,PACU_VAV_MID_OA-PACU_VAV_MID_COOLCNODE,BRANCH,PACU_VAV_MID AIR LOOP MAIN BRANCH,Internal,1
 Parent Node Connection,PACU_VAV_MID_COOLC-PACU_VAV_MID_HEATCNODE,BRANCH,PACU_VAV_MID AIR LOOP MAIN BRANCH,Internal,1
 Parent Node Connection,PACU_VAV_MID_HEATC-PACU_VAV_MID FANNODE,BRANCH,PACU_VAV_MID AIR LOOP MAIN BRANCH,Internal,1
 Parent Node Connection,PACU_VAV_MID SUPPLY EQUIPMENT OUTLET NODE,BRANCH,PACU_VAV_MID AIR LOOP MAIN BRANCH,Outlet,1
 Parent Node Connection,PACU_VAV_TOP SUPPLY EQUIPMENT INLET NODE,BRANCH,PACU_VAV_TOP AIR LOOP MAIN BRANCH,Inlet,1
 Parent Node Connection,PACU_VAV_TOP_OA-PACU_VAV_TOP_COOLCNODE,BRANCH,PACU_VAV_TOP AIR LOOP MAIN BRANCH,Internal,1
 Parent Node Connection,PACU_VAV_TOP_COOLC-PACU_VAV_TOP_HEATCNODE,BRANCH,PACU_VAV_TOP AIR LOOP MAIN BRANCH,Internal,1
 Parent Node Connection,PACU_VAV_TOP_HEATC-PACU_VAV_TOP FANNODE,BRANCH,PACU_VAV_TOP AIR LOOP MAIN BRANCH,Internal,1
 Parent Node Connection,PACU_VAV_TOP SUPPLY EQUIPMENT OUTLET NODE,BRANCH,PACU_VAV_TOP AIR LOOP MAIN BRANCH,Outlet,1
 Parent Node Connection,SHWSYS1 SUPPLY INLET NODE,BRANCH,SHWSYS1 SUPPLY INLET BRANCH,Inlet,1
 Parent Node Connection,SHWSYS1 PUMP-SHWSYS1 WATER HEATERNODEVIACONNECTOR,BRANCH,SHWSYS1 SUPPLY INLET BRANCH,Outlet,1
 Parent Node Connection,SHWSYS1 PUMP-SHWSYS1 WATER HEATERNODE,BRANCH,SHWSYS1 SUPPLY EQUIPMENT BRANCH,Inlet,1
 Parent Node Connection,SHWSYS1 SUPPLY EQUIPMENT OUTLET NODE,BRANCH,SHWSYS1 SUPPLY EQUIPMENT BRANCH,Outlet,1
 Parent Node Connection,SHWSYS1 SUPPLY EQUIP BYPASS INLET NODE,BRANCH,SHWSYS1 SUPPLY EQUIPMENT BYPASS BRANCH,Inlet,1
 Parent Node Connection,SHWSYS1 SUPPLY EQUIP BYPASS OUTLET NODE,BRANCH,SHWSYS1 SUPPLY EQUIPMENT BYPASS BRANCH,Outlet,1
 Parent Node Connection,SHWSYS1 SUPPLY MIXER-SHWSYS1 SUPPLY OUTLET PIPE,BRANCH,SHWSYS1 SUPPLY OUTLET BRANCH,Inlet,1
 Parent Node Connection,SHWSYS1 SUPPLY OUTLET NODE,BRANCH,SHWSYS1 SUPPLY OUTLET BRANCH,Outlet,1
 Parent Node Connection,SHWSYS1 DEMAND INLET NODE,BRANCH,SHWSYS1 DEMAND INLET BRANCH,Inlet,1
 Parent Node Connection,SHWSYS1 DEMAND INLET PIPE-SHWSYS1 DEMAND MIXER,BRANCH,SHWSYS1 DEMAND INLET BRANCH,Outlet,1
 Parent Node Connection,CORE_BOTTOM SUB CAT WATER INLET NODE,BRANCH,SHWSYS1 DEMAND LOAD BRANCH 1,Inlet,1
 Parent Node Connection,CORE_BOTTOM SUB CAT WATER OUTLET NODE,BRANCH,SHWSYS1 DEMAND LOAD BRANCH 1,Outlet,1
 Parent Node Connection,CORE_MID SUB CAT WATER INLET NODE,BRANCH,SHWSYS1 DEMAND LOAD BRANCH 2,Inlet,1
 Parent Node Connection,CORE_MID SUB CAT WATER OUTLET NODE,BRANCH,SHWSYS1 DEMAND LOAD BRANCH 2,Outlet,1
 Parent Node Connection,CORE_TOP SUB CAT WATER INLET NODE,BRANCH,SHWSYS1 DEMAND LOAD BRANCH 3,Inlet,1
 Parent Node Connection,CORE_TOP SUB CAT WATER OUTLET NODE,BRANCH,SHWSYS1 DEMAND LOAD BRANCH 3,Outlet,1
 Parent Node Connection,PERIMETER_TOP_ZN_3 SUB CAT WATER INLET NODE,BRANCH,SHWSYS1 DEMAND LOAD BRANCH 4,Inlet,1
 Parent Node Connection,PERIMETER_TOP_ZN_3 SUB CAT WATER OUTLET NODE,BRANCH,SHWSYS1 DEMAND LOAD BRANCH 4,Outlet,1
 Parent Node Connection,PERIMETER_TOP_ZN_2 SUB CAT WATER INLET NODE,BRANCH,SHWSYS1 DEMAND LOAD BRANCH 5,Inlet,1
 Parent Node Connection,PERIMETER_TOP_ZN_2 SUB CAT WATER OUTLET NODE,BRANCH,SHWSYS1 DEMAND LOAD BRANCH 5,Outlet,1
 Parent Node Connection,PERIMETER_TOP_ZN_1 SUB CAT WATER INLET NODE,BRANCH,SHWSYS1 DEMAND LOAD BRANCH 6,Inlet,1
 Parent Node Connection,PERIMETER_TOP_ZN_1 SUB CAT WATER OUTLET NODE,BRANCH,SHWSYS1 DEMAND LOAD BRANCH 6,Outlet,1
 Parent Node Connection,PERIMETER_TOP_ZN_4 SUB CAT WATER INLET NODE,BRANCH,SHWSYS1 DEMAND LOAD BRANCH 7,Inlet,1
 Parent Node Connection,PERIMETER_TOP_ZN_4 SUB CAT WATER OUTLET NODE,BRANCH,SHWSYS1 DEMAND LOAD BRANCH 7,Outlet,1
 Parent Node Connection,PERIMETER_BOT_ZN_3 SUB CAT WATER INLET NODE,BRANCH,SHWSYS1 DEMAND LOAD BRANCH 8,Inlet,1
 Parent Node Connection,PERIMETER_BOT_ZN_3 SUB CAT WATER OUTLET NODE,BRANCH,SHWSYS1 DEMAND LOAD BRANCH 8,Outlet,1
 Parent Node Connection,PERIMETER_BOT_ZN_2 SUB CAT WATER INLET NODE,BRANCH,SHWSYS1 DEMAND LOAD BRANCH 9,Inlet,1
 Parent Node Connection,PERIMETER_BOT_ZN_2 SUB CAT WATER OUTLET NODE,BRANCH,SHWSYS1 DEMAND LOAD BRANCH 9,Outlet,1
 Parent Node Connection,PERIMETER_BOT_ZN_1 SUB CAT WATER INLET NODE,BRANCH,SHWSYS1 DEMAND LOAD BRANCH 10,Inlet,1
 Parent Node Connection,PERIMETER_BOT_ZN_1 SUB CAT WATER OUTLET NODE,BRANCH,SHWSYS1 DEMAND LOAD BRANCH 10,Outlet,1
 Parent Node Connection,PERIMETER_BOT_ZN_4 SUB CAT WATER INLET NODE,BRANCH,SHWSYS1 DEMAND LOAD BRANCH 11,Inlet,1
 Parent Node Connection,PERIMETER_BOT_ZN_4 SUB CAT WATER OUTLET NODE,BRANCH,SHWSYS1 DEMAND LOAD BRANCH 11,Outlet,1
 Parent Node Connection,PERIMETER_MID_ZN_3 SUB CAT WATER INLET NODE,BRANCH,SHWSYS1 DEMAND LOAD BRANCH 12,Inlet,1
 Parent Node Connection,PERIMETER_MID_ZN_3 SUB CAT WATER OUTLET NODE,BRANCH,SHWSYS1 DEMAND LOAD BRANCH 12,Outlet,1
 Parent Node Connection,PERIMETER_MID_ZN_2 SUB CAT WATER INLET NODE,BRANCH,SHWSYS1 DEMAND LOAD BRANCH 13,Inlet,1
 Parent Node Connection,PERIMETER_MID_ZN_2 SUB CAT WATER OUTLET NODE,BRANCH,SHWSYS1 DEMAND LOAD BRANCH 13,Outlet,1
 Parent Node Connection,PERIMETER_MID_ZN_1 SUB CAT WATER INLET NODE,BRANCH,SHWSYS1 DEMAND LOAD BRANCH 14,Inlet,1
 Parent Node Connection,PERIMETER_MID_ZN_1 SUB CAT WATER OUTLET NODE,BRANCH,SHWSYS1 DEMAND LOAD BRANCH 14,Outlet,1
 Parent Node Connection,PERIMETER_MID_ZN_4 SUB CAT WATER INLET NODE,BRANCH,SHWSYS1 DEMAND LOAD BRANCH 15,Inlet,1
 Parent Node Connection,PERIMETER_MID_ZN_4 SUB CAT WATER OUTLET NODE,BRANCH,SHWSYS1 DEMAND LOAD BRANCH 15,Outlet,1
 Parent Node Connection,SHWSYS1 DEMAND BYPASS PIPE INLET NODE,BRANCH,SHWSYS1 DEMAND BYPASS BRANCH,Inlet,1
 Parent Node Connection,SHWSYS1 DEMAND BYPASS PIPE OUTLET NODE,BRANCH,SHWSYS1 DEMAND BYPASS BRANCH,Outlet,1
 Parent Node Connection,SHWSYS1 DEMAND MIXER-SHWSYS1 DEMAND OUTLET PIPE,BRANCH,SHWSYS1 DEMAND OUTLET BRANCH,Inlet,1
 Parent Node Connection,SHWSYS1 DEMAND OUTLET NODE,BRANCH,SHWSYS1 DEMAND OUTLET BRANCH,Outlet,1
 Parent Node Connection,PACU_VAV_BOT ZONE EQUIPMENT INLET NODE,AIRLOOPHVAC:SUPPLYPATH,PACU_VAV_BOT,Inlet,1
 Parent Node Connection,PACU_VAV_MID ZONE EQUIPMENT INLET NODE,AIRLOOPHVAC:SUPPLYPATH,PACU_VAV_MID,Inlet,1
 Parent Node Connection,PACU_VAV_TOP ZONE EQUIPMENT INLET NODE,AIRLOOPHVAC:SUPPLYPATH,PACU_VAV_TOP,Inlet,1
 Parent Node Connection,PACU_VAV_BOT ZONE EQUIPMENT OUTLET NODE,AIRLOOPHVAC:RETURNPATH,PACU_VAV_BOT RETURN AIR PATH,Outlet,1
 Parent Node Connection,PACU_VAV_MID ZONE EQUIPMENT OUTLET NODE,AIRLOOPHVAC:RETURNPATH,PACU_VAV_MID RETURN AIR PATH,Outlet,1
 Parent Node Connection,PACU_VAV_TOP ZONE EQUIPMENT OUTLET NODE,AIRLOOPHVAC:RETURNPATH,PACU_VAV_TOP RETURN AIR PATH,Outlet,1
 Parent Node Connection,SHWSYS1 SUPPLY INLET NODE,PLANTLOOP,SHWSYS1,Inlet,1
 Parent Node Connection,SHWSYS1 SUPPLY OUTLET NODE,PLANTLOOP,SHWSYS1,Outlet,1
 Parent Node Connection,SHWSYS1 DEMAND INLET NODE,PLANTLOOP,SHWSYS1,Inlet,1
 Parent Node Connection,SHWSYS1 DEMAND OUTLET NODE,PLANTLOOP,SHWSYS1,Outlet,1
 Parent Node Connection,SHWSYS1 SUPPLY OUTLET NODE,PLANTLOOP,SHWSYS1,Sensor,1
 Parent Node Connection,CORE_BOTTOM VAV BOX OUTLET NODE,ZONEHVAC:AIRDISTRIBUTIONUNIT,CORE_BOTTOM VAV BOX,Outlet,1
 Parent Node Connection,CORE_MID VAV BOX OUTLET NODE,ZONEHVAC:AIRDISTRIBUTIONUNIT,CORE_MID VAV BOX,Outlet,1
 Parent Node Connection,CORE_TOP VAV BOX OUTLET NODE,ZONEHVAC:AIRDISTRIBUTIONUNIT,CORE_TOP VAV BOX,Outlet,1
 Parent Node Connection,PERIMETER_TOP_ZN_3 VAV BOX OUTLET NODE,ZONEHVAC:AIRDISTRIBUTIONUNIT,PERIMETER_TOP_ZN_3 VAV BOX,Outlet,1
 Parent Node Connection,PERIMETER_TOP_ZN_2 VAV BOX OUTLET NODE,ZONEHVAC:AIRDISTRIBUTIONUNIT,PERIMETER_TOP_ZN_2 VAV BOX,Outlet,1
 Parent Node Connection,PERIMETER_TOP_ZN_1 VAV BOX OUTLET NODE,ZONEHVAC:AIRDISTRIBUTIONUNIT,PERIMETER_TOP_ZN_1 VAV BOX,Outlet,1
 Parent Node Connection,PERIMETER_TOP_ZN_4 VAV BOX OUTLET NODE,ZONEHVAC:AIRDISTRIBUTIONUNIT,PERIMETER_TOP_ZN_4 VAV BOX,Outlet,1
 Parent Node Connection,PERIMETER_BOT_ZN_3 VAV BOX OUTLET NODE,ZONEHVAC:AIRDISTRIBUTIONUNIT,PERIMETER_BOT_ZN_3 VAV BOX,Outlet,1
 Parent Node Connection,PERIMETER_BOT_ZN_2 VAV BOX OUTLET NODE,ZONEHVAC:AIRDISTRIBUTIONUNIT,PERIMETER_BOT_ZN_2 VAV BOX,Outlet,1
 Parent Node Connection,PERIMETER_BOT_ZN_1 VAV BOX OUTLET NODE,ZONEHVAC:AIRDISTRIBUTIONUNIT,PERIMETER_BOT_ZN_1 VAV BOX,Outlet,1
 Parent Node Connection,PERIMETER_BOT_ZN_4 VAV BOX OUTLET NODE,ZONEHVAC:AIRDISTRIBUTIONUNIT,PERIMETER_BOT_ZN_4 VAV BOX,Outlet,1
 Parent Node Connection,PERIMETER_MID_ZN_3 VAV BOX OUTLET NODE,ZONEHVAC:AIRDISTRIBUTIONUNIT,PERIMETER_MID_ZN_3 VAV BOX,Outlet,1
 Parent Node Connection,PERIMETER_MID_ZN_2 VAV BOX OUTLET NODE,ZONEHVAC:AIRDISTRIBUTIONUNIT,PERIMETER_MID_ZN_2 VAV BOX,Outlet,1
 Parent Node Connection,PERIMETER_MID_ZN_1 VAV BOX OUTLET NODE,ZONEHVAC:AIRDISTRIBUTIONUNIT,PERIMETER_MID_ZN_1 VAV BOX,Outlet,1
 Parent Node Connection,PERIMETER_MID_ZN_4 VAV BOX OUTLET NODE,ZONEHVAC:AIRDISTRIBUTIONUNIT,PERIMETER_MID_ZN_4 VAV BOX,Outlet,1
 Parent Node Connection,CORE_BOTTOM VAV BOX OUTLET NODE,AIRTERMINAL:SINGLEDUCT:VAV:REHEAT,CORE_BOTTOM VAV BOX COMPONENT,Outlet,1
 Parent Node Connection,CORE_MID VAV BOX OUTLET NODE,AIRTERMINAL:SINGLEDUCT:VAV:REHEAT,CORE_MID VAV BOX COMPONENT,Outlet,1
 Parent Node Connection,CORE_TOP VAV BOX OUTLET NODE,AIRTERMINAL:SINGLEDUCT:VAV:REHEAT,CORE_TOP VAV BOX COMPONENT,Outlet,1
 Parent Node Connection,PERIMETER_TOP_ZN_3 VAV BOX OUTLET NODE,AIRTERMINAL:SINGLEDUCT:VAV:REHEAT,PERIMETER_TOP_ZN_3 VAV BOX COMPONENT,Outlet,1
 Parent Node Connection,PERIMETER_TOP_ZN_2 VAV BOX OUTLET NODE,AIRTERMINAL:SINGLEDUCT:VAV:REHEAT,PERIMETER_TOP_ZN_2 VAV BOX COMPONENT,Outlet,1
 Parent Node Connection,PERIMETER_TOP_ZN_1 VAV BOX OUTLET NODE,AIRTERMINAL:SINGLEDUCT:VAV:REHEAT,PERIMETER_TOP_ZN_1 VAV BOX COMPONENT,Outlet,1
 Parent Node Connection,PERIMETER_TOP_ZN_4 VAV BOX OUTLET NODE,AIRTERMINAL:SINGLEDUCT:VAV:REHEAT,PERIMETER_TOP_ZN_4 VAV BOX COMPONENT,Outlet,1
 Parent Node Connection,PERIMETER_BOT_ZN_3 VAV BOX OUTLET NODE,AIRTERMINAL:SINGLEDUCT:VAV:REHEAT,PERIMETER_BOT_ZN_3 VAV BOX COMPONENT,Outlet,1
 Parent Node Connection,PERIMETER_BOT_ZN_2 VAV BOX OUTLET NODE,AIRTERMINAL:SINGLEDUCT:VAV:REHEAT,PERIMETER_BOT_ZN_2 VAV BOX COMPONENT,Outlet,1
 Parent Node Connection,PERIMETER_BOT_ZN_1 VAV BOX OUTLET NODE,AIRTERMINAL:SINGLEDUCT:VAV:REHEAT,PERIMETER_BOT_ZN_1 VAV BOX COMPONENT,Outlet,1
 Parent Node Connection,PERIMETER_BOT_ZN_4 VAV BOX OUTLET NODE,AIRTERMINAL:SINGLEDUCT:VAV:REHEAT,PERIMETER_BOT_ZN_4 VAV BOX COMPONENT,Outlet,1
 Parent Node Connection,PERIMETER_MID_ZN_3 VAV BOX OUTLET NODE,AIRTERMINAL:SINGLEDUCT:VAV:REHEAT,PERIMETER_MID_ZN_3 VAV BOX COMPONENT,Outlet,1
 Parent Node Connection,PERIMETER_MID_ZN_2 VAV BOX OUTLET NODE,AIRTERMINAL:SINGLEDUCT:VAV:REHEAT,PERIMETER_MID_ZN_2 VAV BOX COMPONENT,Outlet,1
 Parent Node Connection,PERIMETER_MID_ZN_1 VAV BOX OUTLET NODE,AIRTERMINAL:SINGLEDUCT:VAV:REHEAT,PERIMETER_MID_ZN_1 VAV BOX COMPONENT,Outlet,1
 Parent Node Connection,PERIMETER_MID_ZN_4 VAV BOX OUTLET NODE,AIRTERMINAL:SINGLEDUCT:VAV:REHEAT,PERIMETER_MID_ZN_4 VAV BOX COMPONENT,Outlet,1
 Parent Node Connection,PACU_VAV_BOT SUPPLY EQUIPMENT INLET NODE,AIRLOOPHVAC,PACU_VAV_BOT,Inlet,1
 Parent Node Connection,PACU_VAV_BOT ZONE EQUIPMENT OUTLET NODE,AIRLOOPHVAC,PACU_VAV_BOT,Outlet,1
 Parent Node Connection,PACU_VAV_BOT ZONE EQUIPMENT INLET NODE,AIRLOOPHVAC,PACU_VAV_BOT,Inlet,1
 Parent Node Connection,PACU_VAV_BOT SUPPLY EQUIPMENT OUTLET NODE,AIRLOOPHVAC,PACU_VAV_BOT,Outlet,1
 Parent Node Connection,PACU_VAV_MID SUPPLY EQUIPMENT INLET NODE,AIRLOOPHVAC,PACU_VAV_MID,Inlet,1
 Parent Node Connection,PACU_VAV_MID ZONE EQUIPMENT OUTLET NODE,AIRLOOPHVAC,PACU_VAV_MID,Outlet,1
 Parent Node Connection,PACU_VAV_MID ZONE EQUIPMENT INLET NODE,AIRLOOPHVAC,PACU_VAV_MID,Inlet,1
 Parent Node Connection,PACU_VAV_MID SUPPLY EQUIPMENT OUTLET NODE,AIRLOOPHVAC,PACU_VAV_MID,Outlet,1
 Parent Node Connection,PACU_VAV_TOP SUPPLY EQUIPMENT INLET NODE,AIRLOOPHVAC,PACU_VAV_TOP,Inlet,1
 Parent Node Connection,PACU_VAV_TOP ZONE EQUIPMENT OUTLET NODE,AIRLOOPHVAC,PACU_VAV_TOP,Outlet,1
 Parent Node Connection,PACU_VAV_TOP ZONE EQUIPMENT INLET NODE,AIRLOOPHVAC,PACU_VAV_TOP,Inlet,1
 Parent Node Connection,PACU_VAV_TOP SUPPLY EQUIPMENT OUTLET NODE,AIRLOOPHVAC,PACU_VAV_TOP,Outlet,1
 Parent Node Connection,PACU_VAV_BOT_OA-PACU_VAV_BOT_COOLCNODE,COILSYSTEM:COOLING:DX,PACU_VAV_BOT_COOLC,Inlet,1
 Parent Node Connection,PACU_VAV_BOT_COOLC-PACU_VAV_BOT_HEATCNODE,COILSYSTEM:COOLING:DX,PACU_VAV_BOT_COOLC,Outlet,1
 Parent Node Connection,PACU_VAV_MID_OA-PACU_VAV_MID_COOLCNODE,COILSYSTEM:COOLING:DX,PACU_VAV_MID_COOLC,Inlet,1
[...]
 Non-Parent Node Connection,SHWSYS1 PUMP-SHWSYS1 WATER HEATERNODE,CONNECTOR:SPLITTER,SHWSYS1 SUPPLY SPLITTER,Outlet,1
 Non-Parent Node Connection,SHWSYS1 SUPPLY EQUIP BYPASS INLET NODE,CONNECTOR:SPLITTER,SHWSYS1 SUPPLY SPLITTER,Outlet,1
 Non-Parent Node Connection,SHWSYS1 SUPPLY MIXER-SHWSYS1 SUPPLY OUTLET PIPE,CONNECTOR:MIXER,SHWSYS1 SUPPLY MIXER,Outlet,1
 Non-Parent Node Connection,SHWSYS1 SUPPLY EQUIPMENT OUTLET NODE,CONNECTOR:MIXER,SHWSYS1 SUPPLY MIXER,Inlet,1
 Non-Parent Node Connection,SHWSYS1 SUPPLY EQUIP BYPASS OUTLET NODE,CONNECTOR:MIXER,SHWSYS1 SUPPLY MIXER,Inlet,1
 Non-Parent Node Connection,PACU_VAV_BOT ZONE EQUIPMENT INLET NODE,AIRLOOPHVAC:ZONESPLITTER,PACU_VAV_BOT SUPPLY AIR SPLITTER,Inlet,1
 Non-Parent Node Connection,CORE_BOTTOM VAV BOX INLET NODE,AIRLOOPHVAC:ZONESPLITTER,PACU_VAV_BOT SUPPLY AIR SPLITTER,Outlet,1
 Non-Parent Node Connection,PERIMETER_BOT_ZN_3 VAV BOX INLET NODE,AIRLOOPHVAC:ZONESPLITTER,PACU_VAV_BOT SUPPLY AIR SPLITTER,Outlet,1
 Non-Parent Node Connection,PERIMETER_BOT_ZN_2 VAV BOX INLET NODE,AIRLOOPHVAC:ZONESPLITTER,PACU_VAV_BOT SUPPLY AIR SPLITTER,Outlet,1
 Non-Parent Node Connection,PERIMETER_BOT_ZN_1 VAV BOX INLET NODE,AIRLOOPHVAC:ZONESPLITTER,PACU_VAV_BOT SUPPLY AIR SPLITTER,Outlet,1
 Non-Parent Node Connection,PERIMETER_BOT_ZN_4 VAV BOX INLET NODE,AIRLOOPHVAC:ZONESPLITTER,PACU_VAV_BOT SUPPLY AIR SPLITTER,Outlet,1
 Non-Parent Node Connection,PACU_VAV_MID ZONE EQUIPMENT INLET NODE,AIRLOOPHVAC:ZONESPLITTER,PACU_VAV_MID SUPPLY AIR SPLITTER,Inlet,1
 Non-Parent Node Connection,CORE_MID VAV BOX INLET NODE,AIRLOOPHVAC:ZONESPLITTER,PACU_VAV_MID SUPPLY AIR SPLITTER,Outlet,1
 Non-Parent Node Connection,PERIMETER_MID_ZN_3 VAV BOX INLET NODE,AIRLOOPHVAC:ZONESPLITTER,PACU_VAV_MID SUPPLY AIR SPLITTER,Outlet,1
 Non-Parent Node Connection,PERIMETER_MID_ZN_2 VAV BOX INLET NODE,AIRLOOPHVAC:ZONESPLITTER,PACU_VAV_MID SUPPLY AIR SPLITTER,Outlet,1
 Non-Parent Node Connection,PERIMETER_MID_ZN_1 VAV BOX INLET NODE,AIRLOOPHVAC:ZONESPLITTER,PACU_VAV_MID SUPPLY AIR SPLITTER,Outlet,1
 Non-Parent Node Connection,PERIMETER_MID_ZN_4 VAV BOX INLET NODE,AIRLOOPHVAC:ZONESPLITTER,PACU_VAV_MID SUPPLY AIR SPLITTER,Outlet,1
 Non-Parent Node Connection,PACU_VAV_TOP ZONE EQUIPMENT INLET NODE,AIRLOOPHVAC:ZONESPLITTER,PACU_VAV_TOP SUPPLY AIR SPLITTER,Inlet,1
 Non-Parent Node Connection,CORE_TOP VAV BOX INLET NODE,AIRLOOPHVAC:ZONESPLITTER,PACU_VAV_TOP SUPPLY AIR SPLITTER,Outlet,1
 Non-Parent Node Connection,PERIMETER_TOP_ZN_3 VAV BOX INLET NODE,AIRLOOPHVAC:ZONESPLITTER,PACU_VAV_TOP SUPPLY AIR SPLITTER,Outlet,1
 Non-Parent Node Connection,PERIMETER_TOP_ZN_2 VAV BOX INLET NODE,AIRLOOPHVAC:ZONESPLITTER,PACU_VAV_TOP SUPPLY AIR SPLITTER,Outlet,1
 Non-Parent Node Connection,PERIMETER_TOP_ZN_1 VAV BOX INLET NODE,AIRLOOPHVAC:ZONESPLITTER,PACU_VAV_TOP SUPPLY AIR SPLITTER,Outlet,1
 Non-Parent Node Connection,PERIMETER_TOP_ZN_4 VAV BOX INLET NODE,AIRLOOPHVAC:ZONESPLITTER,PACU_VAV_TOP SUPPLY AIR SPLITTER,Outlet,1
 Non-Parent Node Connection,CORE_BOTTOM VAV BOX DAMPER NODE,AIRTERMINAL:SINGLEDUCT:VAV:REHEAT,CORE_BOTTOM VAV BOX COMPONENT,Outlet,1
 Non-Parent Node Connection,CORE_BOTTOM VAV BOX INLET NODE,AIRTERMINAL:SINGLEDUCT:VAV:REHEAT,CORE_BOTTOM VAV BOX COMPONENT,Inlet,1
 Non-Parent Node Connection,CORE_MID VAV BOX DAMPER NODE,AIRTERMINAL:SINGLEDUCT:VAV:REHEAT,CORE_MID VAV BOX COMPONENT,Outlet,1
 Non-Parent Node Connection,CORE_MID VAV BOX INLET NODE,AIRTERMINAL:SINGLEDUCT:VAV:REHEAT,CORE_MID VAV BOX COMPONENT,Inlet,1
 Non-Parent Node Connection,CORE_TOP VAV BOX DAMPER NODE,AIRTERMINAL:SINGLEDUCT:VAV:REHEAT,CORE_TOP VAV BOX COMPONENT,Outlet,1
 Non-Parent Node Connection,CORE_TOP VAV BOX INLET NODE,AIRTERMINAL:SINGLEDUCT:VAV:REHEAT,CORE_TOP VAV BOX COMPONENT,Inlet,1
 Non-Parent Node Connection,PERIMETER_TOP_ZN_3 VAV BOX DAMPER NODE,AIRTERMINAL:SINGLEDUCT:VAV:REHEAT,PERIMETER_TOP_ZN_3 VAV BOX COMPONENT,Outlet,1
 Non-Parent Node Connection,PERIMETER_TOP_ZN_3 VAV BOX INLET NODE,AIRTERMINAL:SINGLEDUCT:VAV:REHEAT,PERIMETER_TOP_ZN_3 VAV BOX COMPONENT,Inlet,1
 Non-Parent Node Connection,PERIMETER_TOP_ZN_2 VAV BOX DAMPER NODE,AIRTERMINAL:SINGLEDUCT:VAV:REHEAT,PERIMETER_TOP_ZN_2 VAV BOX COMPONENT,Outlet,1
 Non-Parent Node Connection,PERIMETER_TOP_ZN_2 VAV BOX INLET NODE,AIRTERMINAL:SINGLEDUCT:VAV:REHEAT,PERIMETER_TOP_ZN_2 VAV BOX COMPONENT,Inlet,1
 Non-Parent Node Connection,PERIMETER_TOP_ZN_1 VAV BOX DAMPER NODE,AIRTERMINAL:SINGLEDUCT:VAV:REHEAT,PERIMETER_TOP_ZN_1 VAV BOX COMPONENT,Outlet,1
 Non-Parent Node Connection,PERIMETER_TOP_ZN_1 VAV BOX INLET NODE,AIRTERMINAL:SINGLEDUCT:VAV:REHEAT,PERIMETER_TOP_ZN_1 VAV BOX COMPONENT,Inlet,1
 Non-Parent Node Connection,PERIMETER_TOP_ZN_4 VAV BOX DAMPER NODE,AIRTERMINAL:SINGLEDUCT:VAV:REHEAT,PERIMETER_TOP_ZN_4 VAV BOX COMPONENT,Outlet,1
 Non-Parent Node Connection,PERIMETER_TOP_ZN_4 VAV BOX INLET NODE,AIRTERMINAL:SINGLEDUCT:VAV:REHEAT,PERIMETER_TOP_ZN_4 VAV BOX COMPONENT,Inlet,1
 Non-Parent Node Connection,PERIMETER_BOT_ZN_3 VAV BOX DAMPER NODE,AIRTERMINAL:SINGLEDUCT:VAV:REHEAT,PERIMETER_BOT_ZN_3 VAV BOX COMPONENT,Outlet,1
 Non-Parent Node Connection,PERIMETER_BOT_ZN_3 VAV BOX INLET NODE,AIRTERMINAL:SINGLEDUCT:VAV:REHEAT,PERIMETER_BOT_ZN_3 VAV BOX COMPONENT,Inlet,1
 Non-Parent Node Connection,PERIMETER_BOT_ZN_2 VAV BOX DAMPER NODE,AIRTERMINAL:SINGLEDUCT:VAV:REHEAT,PERIMETER_BOT_ZN_2 VAV BOX COMPONENT,Outlet,1
 Non-Parent Node Connection,PERIMETER_BOT_ZN_2 VAV BOX INLET NODE,AIRTERMINAL:SINGLEDUCT:VAV:REHEAT,PERIMETER_BOT_ZN_2 VAV BOX COMPONENT,Inlet,1
 Non-Parent Node Connection,PERIMETER_BOT_ZN_1 VAV BOX DAMPER NODE,AIRTERMINAL:SINGLEDUCT:VAV:REHEAT,PERIMETER_BOT_ZN_1 VAV BOX COMPONENT,Outlet,1
 Non-Parent Node Connection,PERIMETER_BOT_ZN_1 VAV BOX INLET NODE,AIRTERMINAL:SINGLEDUCT:VAV:REHEAT,PERIMETER_BOT_ZN_1 VAV BOX COMPONENT,Inlet,1
 Non-Parent Node Connection,PERIMETER_BOT_ZN_4 VAV BOX DAMPER NODE,AIRTERMINAL:SINGLEDUCT:VAV:REHEAT,PERIMETER_BOT_ZN_4 VAV BOX COMPONENT,Outlet,1
 Non-Parent Node Connection,PERIMETER_BOT_ZN_4 VAV BOX INLET NODE,AIRTERMINAL:SINGLEDUCT:VAV:REHEAT,PERIMETER_BOT_ZN_4 VAV BOX COMPONENT,Inlet,1
 Non-Parent Node Connection,PERIMETER_MID_ZN_3 VAV BOX DAMPER NODE,AIRTERMINAL:SINGLEDUCT:VAV:REHEAT,PERIMETER_MID_ZN_3 VAV BOX COMPONENT,Outlet,1
 Non-Parent Node Connection,PERIMETER_MID_ZN_3 VAV BOX INLET NODE,AIRTERMINAL:SINGLEDUCT:VAV:REHEAT,PERIMETER_MID_ZN_3 VAV BOX COMPONENT,Inlet,1
 Non-Parent Node Connection,PERIMETER_MID_ZN_2 VAV BOX DAMPER NODE,AIRTERMINAL:SINGLEDUCT:VAV:REHEAT,PERIMETER_MID_ZN_2 VAV BOX COMPONENT,Outlet,1
 Non-Parent Node Connection,PERIMETER_MID_ZN_2 VAV BOX INLET NODE,AIRTERMINAL:SINGLEDUCT:VAV:REHEAT,PERIMETER_MID_ZN_2 VAV BOX COMPONENT,Inlet,1
 Non-Parent Node Connection,PERIMETER_MID_ZN_1 VAV BOX DAMPER NODE,AIRTERMINAL:SINGLEDUCT:VAV:REHEAT,PERIMETER_MID_ZN_1 VAV BOX COMPONENT,Outlet,1
 Non-Parent Node Connection,PERIMETER_MID_ZN_1 VAV BOX INLET NODE,AIRTERMINAL:SINGLEDUCT:VAV:REHEAT,PERIMETER_MID_ZN_1 VAV BOX COMPONENT,Inlet,1
 Non-Parent Node Connection,PERIMETER_MID_ZN_4 VAV BOX DAMPER NODE,AIRTERMINAL:SINGLEDUCT:VAV:REHEAT,PERIMETER_MID_ZN_4 VAV BOX COMPONENT,Outlet,1
 Non-Parent Node Connection,PERIMETER_MID_ZN_4 VAV BOX INLET NODE,AIRTERMINAL:SINGLEDUCT:VAV:REHEAT,PERIMETER_MID_ZN_4 VAV BOX COMPONENT,Inlet,1
 Non-Parent Node Connection,CORE_BOTTOM VAV BOX DAMPER NODE,COIL:HEATING:ELECTRIC,CORE_BOTTOM VAV BOX REHEAT COIL,Inlet,1
 Non-Parent Node Connection,CORE_BOTTOM VAV BOX OUTLET NODE,COIL:HEATING:ELECTRIC,CORE_BOTTOM VAV BOX REHEAT COIL,Outlet,1
 Non-Parent Node Connection,CORE_MID VAV BOX DAMPER NODE,COIL:HEATING:ELECTRIC,CORE_MID VAV BOX REHEAT COIL,Inlet,1
 Non-Parent Node Connection,CORE_MID VAV BOX OUTLET NODE,COIL:HEATING:ELECTRIC,CORE_MID VAV BOX REHEAT COIL,Outlet,1
 Non-Parent Node Connection,CORE_TOP VAV BOX DAMPER NODE,COIL:HEATING:ELECTRIC,CORE_TOP VAV BOX REHEAT COIL,Inlet,1
 Non-Parent Node Connection,CORE_TOP VAV BOX OUTLET NODE,COIL:HEATING:ELECTRIC,CORE_TOP VAV BOX REHEAT COIL,Outlet,1
 Non-Parent Node Connection,PERIMETER_TOP_ZN_3 VAV BOX DAMPER NODE,COIL:HEATING:ELECTRIC,PERIMETER_TOP_ZN_3 VAV BOX REHEAT COIL,Inlet,1
 Non-Parent Node Connection,PERIMETER_TOP_ZN_3 VAV BOX OUTLET NODE,COIL:HEATING:ELECTRIC,PERIMETER_TOP_ZN_3 VAV BOX REHEAT COIL,Outlet,1
 Non-Parent Node Connection,PERIMETER_TOP_ZN_2 VAV BOX DAMPER NODE,COIL:HEATING:ELECTRIC,PERIMETER_TOP_ZN_2 VAV BOX REHEAT COIL,Inlet,1
 Non-Parent Node Connection,PERIMETER_TOP_ZN_2 VAV BOX OUTLET NODE,COIL:HEATING:ELECTRIC,PERIMETER_TOP_ZN_2 VAV BOX REHEAT COIL,Outlet,1
 Non-Parent Node Connection,PERIMETER_TOP_ZN_1 VAV BOX DAMPER NODE,COIL:HEATING:ELECTRIC,PERIMETER_TOP_ZN_1 VAV BOX REHEAT COIL,Inlet,1
 Non-Parent Node Connection,PERIMETER_TOP_ZN_1 VAV BOX OUTLET NODE,COIL:HEATING:ELECTRIC,PERIMETER_TOP_ZN_1 VAV BOX REHEAT COIL,Outlet,1
 Non-Parent Node Connection,PERIMETER_TOP_ZN_4 VAV BOX DAMPER NODE,COIL:HEATING:ELECTRIC,PERIMETER_TOP_ZN_4 VAV BOX REHEAT COIL,Inlet,1
 Non-Parent Node Connection,PERIMETER_TOP_ZN_4 VAV BOX OUTLET NODE,COIL:HEATING:ELECTRIC,PERIMETER_TOP_ZN_4 VAV BOX REHEAT COIL,Outlet,1
 Non-Parent Node Connection,PERIMETER_BOT_ZN_3 VAV BOX DAMPER NODE,COIL:HEATING:ELECTRIC,PERIMETER_BOT_ZN_3 VAV BOX REHEAT COIL,Inlet,1
 Non-Parent Node Connection,PERIMETER_BOT_ZN_3 VAV BOX OUTLET NODE,COIL:HEATING:ELECTRIC,PERIMETER_BOT_ZN_3 VAV BOX REHEAT COIL,Outlet,1
 Non-Parent Node Connection,PERIMETER_BOT_ZN_2 VAV BOX DAMPER NODE,COIL:HEATING:ELECTRIC,PERIMETER_BOT_ZN_2 VAV BOX REHEAT COIL,Inlet,1
 Non-Parent Node Connection,PERIMETER_BOT_ZN_2 VAV BOX OUTLET NODE,COIL:HEATING:ELECTRIC,PERIMETER_BOT_ZN_2 VAV BOX REHEAT COIL,Outlet,1
 Non-Parent Node Connection,PERIMETER_BOT_ZN_1 VAV BOX DAMPER NODE,COIL:HEATING:ELECTRIC,PERIMETER_BOT_ZN_1 VAV BOX REHEAT COIL,Inlet,1
 Non-Parent Node Connection,PERIMETER_BOT_ZN_1 VAV BOX OUTLET NODE,COIL:HEATING:ELECTRIC,PERIMETER_BOT_ZN_1 VAV BOX REHEAT COIL,Outlet,1
 Non-Parent Node Connection,PERIMETER_BOT_ZN_4 VAV BOX DAMPER NODE,COIL:HEATING:ELECTRIC,PERIMETER_BOT_ZN_4 VAV BOX REHEAT COIL,Inlet,1
 Non-Parent Node Connection,PERIMETER_BOT_ZN_4 VAV BOX OUTLET NODE,COIL:HEATING:ELECTRIC,PERIMETER_BOT_ZN_4 VAV BOX REHEAT COIL,Outlet,1
 Non-Parent Node Connection,PERIMETER_MID_ZN_3 VAV BOX DAMPER NODE,COIL:HEATING:ELECTRIC,PERIMETER_MID_ZN_3 VAV BOX REHEAT COIL,Inlet,1
 Non-Parent Node Connection,PERIMETER_MID_ZN_3 VAV BOX OUTLET NODE,COIL:HEATING:ELECTRIC,PERIMETER_MID_ZN_3 VAV BOX REHEAT COIL,Outlet,1
 Non-Parent Node Connection,PERIMETER_MID_ZN_2 VAV BOX DAMPER NODE,COIL:HEATING:ELECTRIC,PERIMETER_MID_ZN_2 VAV BOX REHEAT COIL,Inlet,1
 Non-Parent Node Connection,PERIMETER_MID_ZN_2 VAV BOX OUTLET NODE,COIL:HEATING:ELECTRIC,PERIMETER_MID_ZN_2 VAV BOX REHEAT COIL,Outlet,1
 Non-Parent Node Connection,PERIMETER_MID_ZN_1 VAV BOX DAMPER NODE,COIL:HEATING:ELECTRIC,PERIMETER_MID_ZN_1 VAV BOX REHEAT COIL,Inlet,1
 Non-Parent Node Connection,PERIMETER_MID_ZN_1 VAV BOX OUTLET NODE,COIL:HEATING:ELECTRIC,PERIMETER_MID_ZN_1 VAV BOX REHEAT COIL,Outlet,1
 Non-Parent Node Connection,PERIMETER_MID_ZN_4 VAV BOX DAMPER NODE,COIL:HEATING:ELECTRIC,PERIMETER_MID_ZN_4 VAV BOX REHEAT COIL,Inlet,1
 Non-Parent Node Connection,PERIMETER_MID_ZN_4 VAV BOX OUTLET NODE,COIL:HEATING:ELECTRIC,PERIMETER_MID_ZN_4 VAV BOX REHEAT COIL,Outlet,1
 Non-Parent Node Connection,PACU_VAV_BOT_COOLC-PACU_VAV_BOT_HEATCNODE,COIL:HEATING:FUEL,PACU_VAV_BOT_HEATC,Inlet,1
 Non-Parent Node Connection,PACU_VAV_BOT_HEATC-PACU_VAV_BOT FANNODE,COIL:HEATING:FUEL,PACU_VAV_BOT_HEATC,Outlet,1
 Non-Parent Node Connection,PACU_VAV_BOT_HEATC-PACU_VAV_BOT FANNODE,COIL:HEATING:FUEL,PACU_VAV_BOT_HEATC,Sensor,1
 Non-Parent Node Connection,PACU_VAV_MID_COOLC-PACU_VAV_MID_HEATCNODE,COIL:HEATING:FUEL,PACU_VAV_MID_HEATC,Inlet,1
 Non-Parent Node Connection,PACU_VAV_MID_HEATC-PACU_VAV_MID FANNODE,COIL:HEATING:FUEL,PACU_VAV_MID_HEATC,Outlet,1
 Non-Parent Node Connection,PACU_VAV_MID_HEATC-PACU_VAV_MID FANNODE,COIL:HEATING:FUEL,PACU_VAV_MID_HEATC,Sensor,1
 Non-Parent Node Connection,PACU_VAV_TOP_COOLC-PACU_VAV_TOP_HEATCNODE,COIL:HEATING:FUEL,PACU_VAV_TOP_HEATC,Inlet,1
 Non-Parent Node Connection,PACU_VAV_TOP_HEATC-PACU_VAV_TOP FANNODE,COIL:HEATING:FUEL,PACU_VAV_TOP_HEATC,Outlet,1
 Non-Parent Node Connection,PACU_VAV_TOP_HEATC-PACU_VAV_TOP FANNODE,COIL:HEATING:FUEL,PACU_VAV_TOP_HEATC,Sensor,1
 Non-Parent Node Connection,FIRSTFLOOR_PLENUM NODE,AIRLOOPHVAC:RETURNPLENUM,FIRSTFLOOR_RETURN_PLENUM,ZoneNode,1
 Non-Parent Node Connection,FIRSTFLOOR_PLENUM OUTLET NODE,AIRLOOPHVAC:RETURNPLENUM,FIRSTFLOOR_RETURN_PLENUM,Outlet,1
 Non-Parent Node Connection,CORE_BOTTOM RETURN AIR NODE,AIRLOOPHVAC:RETURNPLENUM,FIRSTFLOOR_RETURN_PLENUM,Inlet,1
 Non-Parent Node Connection,PERIMETER_BOT_ZN_4 RETURN AIR NODE,AIRLOOPHVAC:RETURNPLENUM,FIRSTFLOOR_RETURN_PLENUM,Inlet,1
 Non-Parent Node Connection,PERIMETER_BOT_ZN_3 RETURN AIR NODE,AIRLOOPHVAC:RETURNPLENUM,FIRSTFLOOR_RETURN_PLENUM,Inlet,1
 Non-Parent Node Connection,PERIMETER_BOT_ZN_2 RETURN AIR NODE,AIRLOOPHVAC:RETURNPLENUM,FIRSTFLOOR_RETURN_PLENUM,Inlet,1
 Non-Parent Node Connection,PERIMETER_BOT_ZN_1 RETURN AIR NODE,AIRLOOPHVAC:RETURNPLENUM,FIRSTFLOOR_RETURN_PLENUM,Inlet,1
 Non-Parent Node Connection,MIDFLOOR_PLENUM NODE,AIRLOOPHVAC:RETURNPLENUM,MIDFLOOR_RETURN_PLENUM,ZoneNode,1
 Non-Parent Node Connection,MIDFLOOR_PLENUM OUTLET NODE,AIRLOOPHVAC:RETURNPLENUM,MIDFLOOR_RETURN_PLENUM,Outlet,1
 Non-Parent Node Connection,CORE_MID RETURN AIR NODE,AIRLOOPHVAC:RETURNPLENUM,MIDFLOOR_RETURN_PLENUM,Inlet,1
 Non-Parent Node Connection,PERIMETER_MID_ZN_4 RETURN AIR NODE,AIRLOOPHVAC:RETURNPLENUM,MIDFLOOR_RETURN_PLENUM,Inlet,1
 Non-Parent Node Connection,PERIMETER_MID_ZN_3 RETURN AIR NODE,AIRLOOPHVAC:RETURNPLENUM,MIDFLOOR_RETURN_PLENUM,Inlet,1
 Non-Parent Node Connection,PERIMETER_MID_ZN_2 RETURN AIR NODE,AIRLOOPHVAC:RETURNPLENUM,MIDFLOOR_RETURN_PLENUM,Inlet,1
 Non-Parent Node Connection,PERIMETER_MID_ZN_1 RETURN AIR NODE,AIRLOOPHVAC:RETURNPLENUM,MIDFLOOR_RETURN_PLENUM,Inlet,1
 Non-Parent Node Connection,TOPFLOOR_PLENUM NODE,AIRLOOPHVAC:RETURNPLENUM,TOPFLOOR_RETURN_PLENUM,ZoneNode,1
 Non-Parent Node Connection,TOPFLOOR_PLENUM OUTLET NODE,AIRLOOPHVAC:RETURNPLENUM,TOPFLOOR_RETURN_PLENUM,Outlet,1
 Non-Parent Node Connection,CORE_TOP RETURN AIR NODE,AIRLOOPHVAC:RETURNPLENUM,TOPFLOOR_RETURN_PLENUM,Inlet,1
 Non-Parent Node Connection,PERIMETER_TOP_ZN_4 RETURN AIR NODE,AIRLOOPHVAC:RETURNPLENUM,TOPFLOOR_RETURN_PLENUM,Inlet,1
 Non-Parent Node Connection,PERIMETER_TOP_ZN_3 RETURN AIR NODE,AIRLOOPHVAC:RETURNPLENUM,TOPFLOOR_RETURN_PLENUM,Inlet,1
 Non-Parent Node Connection,PERIMETER_TOP_ZN_2 RETURN AIR NODE,AIRLOOPHVAC:RETURNPLENUM,TOPFLOOR_RETURN_PLENUM,Inlet,1
 Non-Parent Node Connection,PERIMETER_TOP_ZN_1 RETURN AIR NODE,AIRLOOPHVAC:RETURNPLENUM,TOPFLOOR_RETURN_PLENUM,Inlet,1
 Non-Parent Node Connection,PACU_VAV_BOT ZONE EQUIPMENT OUTLET NODE,AIRLOOPHVAC:ZONEMIXER,PACU_VAV_BOT RETURN AIR MIXER,Outlet,1
 Non-Parent Node Connection,FIRSTFLOOR_PLENUM OUTLET NODE,AIRLOOPHVAC:ZONEMIXER,PACU_VAV_BOT RETURN AIR MIXER,Inlet,1
 Non-Parent Node Connection,PACU_VAV_MID ZONE EQUIPMENT OUTLET NODE,AIRLOOPHVAC:ZONEMIXER,PACU_VAV_MID RETURN AIR MIXER,Outlet,1
 Non-Parent Node Connection,MIDFLOOR_PLENUM OUTLET NODE,AIRLOOPHVAC:ZONEMIXER,PACU_VAV_MID RETURN AIR MIXER,Inlet,1
 Non-Parent Node Connection,PACU_VAV_TOP ZONE EQUIPMENT OUTLET NODE,AIRLOOPHVAC:ZONEMIXER,PACU_VAV_TOP RETURN AIR MIXER,Outlet,1
 Non-Parent Node Connection,TOPFLOOR_PLENUM OUTLET NODE,AIRLOOPHVAC:ZONEMIXER,PACU_VAV_TOP RETURN AIR MIXER,Inlet,1
 Non-Parent Node Connection,PACU_VAV_BOT_OA-PACU_VAV_BOT_COOLCNODE,OUTDOORAIR:MIXER,PACU_VAV_BOT_OAMIXING BOX,Outlet,1
 Non-Parent Node Connection,PACU_VAV_BOT_OAINLET NODE,OUTDOORAIR:MIXER,PACU_VAV_BOT_OAMIXING BOX,Inlet,1
 Non-Parent Node Connection,PACU_VAV_BOT_OARELIEF NODE,OUTDOORAIR:MIXER,PACU_VAV_BOT_OAMIXING BOX,ReliefAir,1
 Non-Parent Node Connection,PACU_VAV_BOT SUPPLY EQUIPMENT INLET NODE,OUTDOORAIR:MIXER,PACU_VAV_BOT_OAMIXING BOX,Inlet,1
 Non-Parent Node Connection,PACU_VAV_MID_OA-PACU_VAV_MID_COOLCNODE,OUTDOORAIR:MIXER,PACU_VAV_MID_OAMIXING BOX,Outlet,1
 Non-Parent Node Connection,PACU_VAV_MID_OAINLET NODE,OUTDOORAIR:MIXER,PACU_VAV_MID_OAMIXING BOX,Inlet,1
 Non-Parent Node Connection,PACU_VAV_MID_OARELIEF NODE,OUTDOORAIR:MIXER,PACU_VAV_MID_OAMIXING BOX,ReliefAir,1
 Non-Parent Node Connection,PACU_VAV_MID SUPPLY EQUIPMENT INLET NODE,OUTDOORAIR:MIXER,PACU_VAV_MID_OAMIXING BOX,Inlet,1
 Non-Parent Node Connection,PACU_VAV_TOP_OA-PACU_VAV_TOP_COOLCNODE,OUTDOORAIR:MIXER,PACU_VAV_TOP_OAMIXING BOX,Outlet,1
 Non-Parent Node Connection,PACU_VAV_TOP_OAINLET NODE,OUTDOORAIR:MIXER,PACU_VAV_TOP_OAMIXING BOX,Inlet,1
 Non-Parent Node Connection,PACU_VAV_TOP_OARELIEF NODE,OUTDOORAIR:MIXER,PACU_VAV_TOP_OAMIXING BOX,ReliefAir,1
 Non-Parent Node Connection,PACU_VAV_TOP SUPPLY EQUIPMENT INLET NODE,OUTDOORAIR:MIXER,PACU_VAV_TOP_OAMIXING BOX,Inlet,1
 Non-Parent Node Connection,PACU_VAV_BOT_HEATC-PACU_VAV_BOT FANNODE,FAN:VARIABLEVOLUME,PACU_VAV_BOT FAN,Inlet,1
 Non-Parent Node Connection,PACU_VAV_BOT SUPPLY EQUIPMENT OUTLET NODE,FAN:VARIABLEVOLUME,PACU_VAV_BOT FAN,Outlet,1
 Non-Parent Node Connection,PACU_VAV_MID_HEATC-PACU_VAV_MID FANNODE,FAN:VARIABLEVOLUME,PACU_VAV_MID FAN,Inlet,1
 Non-Parent Node Connection,PACU_VAV_MID SUPPLY EQUIPMENT OUTLET NODE,FAN:VARIABLEVOLUME,PACU_VAV_MID FAN,Outlet,1
 Non-Parent Node Connection,PACU_VAV_TOP_HEATC-PACU_VAV_TOP FANNODE,FAN:VARIABLEVOLUME,PACU_VAV_TOP FAN,Inlet,1
 Non-Parent Node Connection,PACU_VAV_TOP SUPPLY EQUIPMENT OUTLET NODE,FAN:VARIABLEVOLUME,PACU_VAV_TOP FAN,Outlet,1
 Non-Parent Node Connection,PACU_VAV_BOT_OA-PACU_VAV_BOT_COOLCNODE,CONTROLLER:OUTDOORAIR,PACU_VAV_BOT_OA_CONTROLLER,Sensor,1
 Non-Parent Node Connection,PACU_VAV_BOT_OAINLET NODE,CONTROLLER:OUTDOORAIR,PACU_VAV_BOT_OA_CONTROLLER,Actuator,1
 Non-Parent Node Connection,PACU_VAV_BOT_OARELIEF NODE,CONTROLLER:OUTDOORAIR,PACU_VAV_BOT_OA_CONTROLLER,Actuator,1
 Non-Parent Node Connection,PACU_VAV_BOT SUPPLY EQUIPMENT INLET NODE,CONTROLLER:OUTDOORAIR,PACU_VAV_BOT_OA_CONTROLLER,Sensor,1
 Non-Parent Node Connection,PACU_VAV_MID_OA-PACU_VAV_MID_COOLCNODE,CONTROLLER:OUTDOORAIR,PACU_VAV_MID_OA_CONTROLLER,Sensor,1
 Non-Parent Node Connection,PACU_VAV_MID_OAINLET NODE,CONTROLLER:OUTDOORAIR,PACU_VAV_MID_OA_CONTROLLER,Actuator,1
 Non-Parent Node Connection,PACU_VAV_MID_OARELIEF NODE,CONTROLLER:OUTDOORAIR,PACU_VAV_MID_OA_CONTROLLER,Actuator,1
 Non-Parent Node Connection,PACU_VAV_MID SUPPLY EQUIPMENT INLET NODE,CONTROLLER:OUTDOORAIR,PACU_VAV_MID_OA_CONTROLLER,Sensor,1
 Non-Parent Node Connection,PACU_VAV_TOP_OA-PACU_VAV_TOP_COOLCNODE,CONTROLLER:OUTDOORAIR,PACU_VAV_TOP_OA_CONTROLLER,Sensor,1
 Non-Parent Node Connection,PACU_VAV_TOP_OAINLET NODE,CONTROLLER:OUTDOORAIR,PACU_VAV_TOP_OA_CONTROLLER,Actuator,1
 Non-Parent Node Connection,PACU_VAV_TOP_OARELIEF NODE,CONTROLLER:OUTDOORAIR,PACU_VAV_TOP_OA_CONTROLLER,Actuator,1
 Non-Parent Node Connection,PACU_VAV_TOP SUPPLY EQUIPMENT INLET NODE,CONTROLLER:OUTDOORAIR,PACU_VAV_TOP_OA_CONTROLLER,Sensor,1
 Non-Parent Node Connection,PACU_VAV_BOT_OA-PACU_VAV_BOT_COOLCNODE,COIL:COOLING:DX:TWOSPEED,PACU_VAV_BOT_COOLC DXCOIL,Inlet,1
 Non-Parent Node Connection,PACU_VAV_BOT_COOLC-PACU_VAV_BOT_HEATCNODE,COIL:COOLING:DX:TWOSPEED,PACU_VAV_BOT_COOLC DXCOIL,Outlet,1
 Non-Parent Node Connection,PACU_VAV_MID_OA-PACU_VAV_MID_COOLCNODE,COIL:COOLING:DX:TWOSPEED,PACU_VAV_MID_COOLC DXCOIL,Inlet,1
 Non-Parent Node Connection,PACU_VAV_MID_COOLC-PACU_VAV_MID_HEATCNODE,COIL:COOLING:DX:TWOSPEED,PACU_VAV_MID_COOLC DXCOIL,Outlet,1
 Non-Parent Node Connection,PACU_VAV_TOP_OA-PACU_VAV_TOP_COOLCNODE,COIL:COOLING:DX:TWOSPEED,PACU_VAV_TOP_COOLC DXCOIL,Inlet,1
 Non-Parent Node Connection,PACU_VAV_TOP_COOLC-PACU_VAV_TOP_HEATCNODE,COIL:COOLING:DX:TWOSPEED,PACU_VAV_TOP_COOLC DXCOIL,Outlet,1
 Non-Parent Node Connection,SHWSYS1 SUPPLY INLET NODE,PUMP:CONSTANTSPEED,SHWSYS1 PUMP,Inlet,1
 Non-Parent Node Connection,SHWSYS1 PUMP-SHWSYS1 WATER HEATERNODEVIACONNECTOR,PUMP:CONSTANTSPEED,SHWSYS1 PUMP,Outlet,1
