  0
SECTION
  2
ENTITIES
999
DXF created from EnergyPlus
999
Program Version,EnergyPlus, Version 9.6.0-f420c06a69, YMD=2022.07.16 15:04
999
Polygon Action,ThickPolyline
999
Color Scheme,Default
999
Text - True North
  0
TEXT
  8
1
  6
Continuous
 62
  3
 10
      -11.00000
 20
        3.00000
 30
        0.10000
 40
 .25
  1
True North
 41
 0.0
  7
MONOTXT
210
0.0
220
0.0
230
1.0
999
Text - Building Title
  0
TEXT
  8
1
  6
Continuous
 62
  3
 10
      -14.00000
 20
       -1.00000
 30
        0.10000
 40
 .4
  1
Building - OfficeMedium
 41
 0.0
  7
MONOTXT
210
0.0
220
0.0
230
1.0
999
North Arrow Stem
  0
3DFACE
  8
1
 62
  3
 10
      -10.00000
 20
        3.00000
 30
        0.10000
 11
      -10.00000
 21
        3.00000
 31
        0.00000
 12
      -10.00000
 22
        0.00000
 32
        0.00000
 13
      -10.00000
 23
        0.00000
 33
        0.10000
999
North Arrow Head 1
  0
3DFACE
  8
1
 62
  3
 10
      -10.00000
 20
        3.00000
 30
        0.10000
 11
      -10.00000
 21
        3.00000
 31
        0.00000
 12
      -10.50000
 22
        2.13397
 32
        0.00000
 13
      -10.50000
 23
        2.13397
 33
        0.10000
999
North Arrow Head 2
  0
3DFACE
  8
1
 62
  3
 10
      -10.00000
 20
        3.00000
 30
        0.10000
 11
      -10.00000
 21
        3.00000
 31
        0.00000
 12
       -9.50000
 22
        2.13397
 32
        0.00000
 13
       -9.50000
 23
        2.13397
 33
        0.10000
999
North Arrow Side 1
  0
3DFACE
  8
1
 62
  3
 10
      -10.50000
 20
        4.50000
 30
        0.10000
 11
      -10.50000
 21
        4.50000
 31
        0.00000
 12
      -10.50000
 22
        3.50000
 32
        0.00000
 13
      -10.50000
 23
        3.50000
 33
        0.10000
999
North Arrow Side 2
  0
3DFACE
  8
1
 62
  3
 10
      -10.50000
 20
        4.50000
 30
        0.10000
 11
      -10.50000
 21
        4.50000
 31
        0.00000
 12
       -9.50000
 22
        3.50000
 32
        0.00000
 13
       -9.50000
 23
        3.50000
 33
        0.10000
999
North Arrow Side 3
  0
3DFACE
  8
1
 62
  3
 10
       -9.50000
 20
        4.50000
 30
        0.10000
 11
       -9.50000
 21
        4.50000
 31
        0.00000
 12
       -9.50000
 22
        3.50000
 32
        0.00000
 13
       -9.50000
 23
        3.50000
 33
        0.10000
999
Zone Names
999
Zone=1:CORE_BOTTOM
999
Zone=2:TOPFLOOR_PLENUM
999
Zone=3:MIDFLOOR_PLENUM
999
Zone=4:FIRSTFLOOR_PLENUM
999
Zone=5:CORE_MID
999
Zone=6:CORE_TOP
999
Zone=7:PERIMETER_TOP_ZN_3
999
Zone=8:PERIMETER_TOP_ZN_2
999
Zone=9:PERIMETER_TOP_ZN_1
999
Zone=10:PERIMETER_TOP_ZN_4
999
Zone=11:PERIMETER_BOT_ZN_3
999
Zone=12:PERIMETER_BOT_ZN_2
999
Zone=13:PERIMETER_BOT_ZN_1
999
Zone=14:PERIMETER_BOT_ZN_4
999
Zone=15:PERIMETER_MID_ZN_3
999
Zone=16:PERIMETER_MID_ZN_2
999
Zone=17:PERIMETER_MID_ZN_1
999
Zone=18:PERIMETER_MID_ZN_4
999
CORE_BOTTOM:CORE_BOT_ZN_5_WALL_SOUTH
  0
3DFACE
  8
CORE_BOTTOM
 62
 43
 10
        4.57320
 20
        4.57320
 30
        2.74320
 11
        4.57320
 21
        4.57320
 31
        0.00000
 12
       45.33750
 22
        4.57320
 32
        0.00000
 13
       45.33750
 23
        4.57320
 33
        2.74320
999
CORE_BOTTOM:CORE_BOT_ZN_5_WALL_EAST
  0
3DFACE
  8
CORE_BOTTOM
 62
 43
 10
       45.33750
 20
        4.57320
 30
        2.74320
 11
       45.33750
 21
        4.57320
 31
        0.00000
 12
       45.33750
 22
       28.70060
 32
        0.00000
 13
       45.33750
 23
       28.70060
 33
        2.74320
999
CORE_BOTTOM:CORE_BOT_ZN_5_WALL_NORTH
  0
3DFACE
  8
CORE_BOTTOM
 62
 43
 10
       45.33750
 20
       28.70060
 30
        2.74320
 11
       45.33750
 21
       28.70060
 31
        0.00000
 12
        4.57320
 22
       28.70060
 32
        0.00000
 13
        4.57320
 23
       28.70060
 33
        2.74320
999
CORE_BOTTOM:CORE_BOT_ZN_5_WALL_WEST
  0
3DFACE
  8
CORE_BOTTOM
 62
 43
 10
        4.57320
 20
       28.70060
 30
        2.74320
 11
        4.57320
 21
       28.70060
 31
        0.00000
 12
        4.57320
 22
        4.57320
 32
        0.00000
 13
        4.57320
 23
        4.57320
 33
        2.74320
999
CORE_BOTTOM:CORE_BOT_ZN_5_FLOOR
  0
3DFACE
  8
CORE_BOTTOM
 62
  8
 10
       45.33750
 20
       28.70060
 30
        0.00000
 11
       45.33750
 21
        4.57320
 31
        0.00000
 12
        4.57320
 22
        4.57320
 32
        0.00000
 13
        4.57320
 23
       28.70060
 33
        0.00000
999
CORE_BOTTOM:CORE_BOT_ZN_5_CEILING
  0
3DFACE
  8
CORE_BOTTOM
 62
 15
 10
        4.57320
 20
       28.70060
 30
        2.74320
 11
        4.57320
 21
        4.57320
 31
        2.74320
 12
       45.33750
 22
        4.57320
 32
        2.74320
 13
       45.33750
 23
       28.70060
 33
        2.74320
999
TOPFLOOR_PLENUM:PERIMETER_TOP_PLENUM_WALL_NORTH
  0
3DFACE
  8
TOPFLOOR_PLENUM
 62
 43
 10
       49.91100
 20
       33.27380
 30
       11.88720
 11
       49.91100
 21
       33.27380
 31
       10.66800
 12
        0.00000
 22
       33.27380
 32
       10.66800
 13
        0.00000
 23
       33.27380
 33
       11.88720
999
TOPFLOOR_PLENUM:PERIMETER_TOP_PLENUM_WALL_EAST
  0
3DFACE
  8
TOPFLOOR_PLENUM
 62
 43
 10
       49.91100
 20
        0.00000
 30
       11.88720
 11
       49.91100
 21
        0.00000
 31
       10.66800
 12
       49.91100
 22
       33.27380
 32
       10.66800
 13
       49.91100
 23
       33.27380
 33
       11.88720
999
TOPFLOOR_PLENUM:PERIMETER_TOP_PLENUM_WALL_SOUTH
  0
3DFACE
  8
TOPFLOOR_PLENUM
 62
 43
 10
        0.00000
 20
        0.00000
 30
       11.88720
 11
        0.00000
 21
        0.00000
 31
       10.66800
 12
       49.91100
 22
        0.00000
 32
       10.66800
 13
       49.91100
 23
        0.00000
 33
       11.88720
999
TOPFLOOR_PLENUM:PERIMETER_TOP_PLENUM_WALL_WEST
  0
3DFACE
  8
TOPFLOOR_PLENUM
 62
 43
 10
        0.00000
 20
       33.27380
 30
       11.88720
 11
        0.00000
 21
       33.27380
 31
       10.66800
 12
        0.00000
 22
        0.00000
 32
       10.66800
 13
        0.00000
 23
        0.00000
 33
       11.88720
999
TOPFLOOR_PLENUM:iz-PERIMETER_TOP_ZN_1_CEILING
  0
3DFACE
  8
TOPFLOOR_PLENUM
 62
  8
 10
        4.57320
 20
        4.57320
 30
       10.66800
 11
       45.33750
 21
        4.57320
 31
       10.66800
 12
       49.91100
 22
        0.00000
 32
       10.66800
 13
        0.00000
 23
        0.00000
 33
       10.66800
999
TOPFLOOR_PLENUM:iz-PERIMETER_TOP_ZN_2_CEILING
  0
3DFACE
  8
TOPFLOOR_PLENUM
 62
  8
 10
       45.33750
 20
        4.57320
 30
       10.66800
 11
       45.33750
 21
       28.70060
 31
       10.66800
 12
       49.91100
 22
       33.27380
 32
       10.66800
 13
       49.91100
 23
        0.00000
 33
       10.66800
999
TOPFLOOR_PLENUM:iz-PERIMETER_TOP_ZN_3_CEILING
  0
3DFACE
  8
TOPFLOOR_PLENUM
 62
  8
 10
       45.33750
 20
       28.70060
 30
       10.66800
 11
        4.57320
 21
       28.70060
 31
       10.66800
 12
        0.00000
 22
       33.27380
 32
       10.66800
 13
       49.91100
 23
       33.27380
 33
       10.66800
999
TOPFLOOR_PLENUM:iz-PERIMETER_TOP_ZN_4_CEILING
  0
3DFACE
  8
TOPFLOOR_PLENUM
 62
  8
 10
        4.57320
 20
       28.70060
 30
       10.66800
 11
        4.57320
 21
        4.57320
 31
       10.66800
 12
        0.00000
 22
        0.00000
 32
       10.66800
 13
        0.00000
 23
       33.27380
 33
       10.66800
999
TOPFLOOR_PLENUM:iz-CORE_TOP_ZN_5_CEILING
  0
3DFACE
  8
TOPFLOOR_PLENUM
 62
  8
 10
        4.57320
 20
        4.57320
 30
       10.66800
 11
        4.57320
 21
       28.70060
 31
       10.66800
 12
       45.33750
 22
       28.70060
 32
       10.66800
 13
       45.33750
 23
        4.57320
 33
       10.66800
999
TOPFLOOR_PLENUM:BUILDING_ROOF
  0
3DFACE
  8
TOPFLOOR_PLENUM
 62
 15
 10
       49.91100
 20
        0.00000
 30
       11.88720
 11
       49.91100
 21
       33.27380
 31
       11.88720
 12
        0.00000
 22
       33.27380
 32
       11.88720
 13
        0.00000
 23
        0.00000
 33
       11.88720
999
MIDFLOOR_PLENUM:PERIMETER_MID_PLENUM_WALL_NORTH
  0
3DFACE
  8
MIDFLOOR_PLENUM
 62
 43
 10
       49.91100
 20
       33.27380
 30
        7.92480
 11
       49.91100
 21
       33.27380
 31
        6.70560
 12
        0.00000
 22
       33.27380
 32
        6.70560
 13
        0.00000
 23
       33.27380
 33
        7.92480
999
MIDFLOOR_PLENUM:PERIMETER_MID_PLENUM_WALL_EAST
  0
3DFACE
  8
MIDFLOOR_PLENUM
 62
 43
 10
       49.91100
 20
        0.00000
 30
        7.92480
 11
       49.91100
 21
        0.00000
 31
        6.70560
 12
       49.91100
 22
       33.27380
 32
        6.70560
 13
       49.91100
 23
       33.27380
 33
        7.92480
999
MIDFLOOR_PLENUM:PERIMETER_MID_PLENUM_WALL_SOUTH
  0
3DFACE
  8
MIDFLOOR_PLENUM
 62
 43
 10
        0.00000
 20
        0.00000
 30
        7.92480
 11
        0.00000
 21
        0.00000
 31
        6.70560
 12
       49.91100
 22
        0.00000
 32
        6.70560
 13
       49.91100
 23
        0.00000
 33
        7.92480
999
MIDFLOOR_PLENUM:PERIMETER_MID_PLENUM_WALL_WEST
  0
3DFACE
  8
MIDFLOOR_PLENUM
 62
 43
 10
        0.00000
 20
       33.27380
 30
        7.92480
 11
        0.00000
 21
       33.27380
 31
        6.70560
 12
        0.00000
 22
        0.00000
 32
        6.70560
 13
        0.00000
 23
        0.00000
 33
        7.92480
999
MIDFLOOR_PLENUM:iz-PERIMETER_MID_ZN_1_CEILING
  0
3DFACE
  8
MIDFLOOR_PLENUM
 62
  8
 10
        0.00000
 20
        0.00000
 30
        6.70560
 11
        4.57320
 21
        4.57320
 31
        6.70560
 12
       45.33750
 22
        4.57320
 32
        6.70560
 13
       49.91100
 23
        0.00000
 33
        6.70560
999
MIDFLOOR_PLENUM:iz-PERIMETER_MID_ZN_2_CEILING
  0
3DFACE
  8
MIDFLOOR_PLENUM
 62
  8
 10
       49.91100
 20
        0.00000
 30
        6.70560
 11
       45.33750
 21
        4.57320
 31
        6.70560
 12
       45.33750
 22
       28.70060
 32
        6.70560
 13
       49.91100
 23
       33.27380
 33
        6.70560
999
MIDFLOOR_PLENUM:iz-PERIMETER_MID_ZN_3_CEILING
  0
3DFACE
  8
MIDFLOOR_PLENUM
 62
  8
 10
       49.91100
 20
       33.27380
 30
        6.70560
 11
       45.33750
 21
       28.70060
 31
        6.70560
 12
        4.57320
 22
       28.70060
 32
        6.70560
 13
        0.00000
 23
       33.27380
 33
        6.70560
999
MIDFLOOR_PLENUM:iz-PERIMETER_MID_ZN_4_CEILING
  0
3DFACE
  8
MIDFLOOR_PLENUM
 62
  8
 10
        0.00000
 20
       33.27380
 30
        6.70560
 11
        4.57320
 21
       28.70060
 31
        6.70560
 12
        4.57320
 22
        4.57320
 32
        6.70560
 13
        0.00000
 23
        0.00000
 33
        6.70560
999
MIDFLOOR_PLENUM:iz-CORE_MID_ZN_5_CEILING
  0
3DFACE
  8
MIDFLOOR_PLENUM
 62
  8
 10
       45.33750
 20
       28.70060
 30
        6.70560
 11
       45.33750
 21
        4.57320
 31
        6.70560
 12
        4.57320
 22
        4.57320
 32
        6.70560
 13
        4.57320
 23
       28.70060
 33
        6.70560
999
MIDFLOOR_PLENUM:iz-PERIMETER_TOP_ZN_1_FLOOR
  0
3DFACE
  8
MIDFLOOR_PLENUM
 62
 15
 10
       49.91100
 20
        0.00000
 30
        7.92480
 11
       45.33750
 21
        4.57320
 31
        7.92480
 12
        4.57320
 22
        4.57320
 32
        7.92480
 13
        0.00000
 23
        0.00000
 33
        7.92480
999
MIDFLOOR_PLENUM:iz-PERIMETER_TOP_ZN_2_FLOOR
  0
3DFACE
  8
MIDFLOOR_PLENUM
 62
 15
 10
       49.91100
 20
       33.27380
 30
        7.92480
 11
       45.33750
 21
       28.70060
 31
        7.92480
 12
       45.33750
 22
        4.57320
 32
        7.92480
 13
       49.91100
 23
        0.00000
 33
        7.92480
999
MIDFLOOR_PLENUM:iz-PERIMETER_TOP_ZN_3_FLOOR
  0
3DFACE
  8
MIDFLOOR_PLENUM
 62
 15
 10
        0.00000
 20
       33.27380
 30
        7.92480
 11
        4.57320
 21
       28.70060
 31
        7.92480
 12
       45.33750
 22
       28.70060
 32
        7.92480
 13
       49.91100
 23
       33.27380
 33
        7.92480
999
MIDFLOOR_PLENUM:iz-PERIMETER_TOP_ZN_4_FLOOR
  0
3DFACE
  8
MIDFLOOR_PLENUM
 62
 15
 10
        0.00000
 20
        0.00000
 30
        7.92480
 11
        4.57320
 21
        4.57320
 31
        7.92480
 12
        4.57320
 22
       28.70060
 32
        7.92480
 13
        0.00000
 23
       33.27380
 33
        7.92480
999
MIDFLOOR_PLENUM:iz-CORE_TOP_ZN_5_FLOOR
  0
3DFACE
  8
MIDFLOOR_PLENUM
 62
 15
 10
        4.57320
 20
       28.70060
 30
        7.92480
 11
        4.57320
 21
        4.57320
 31
        7.92480
 12
       45.33750
 22
        4.57320
 32
        7.92480
 13
       45.33750
 23
       28.70060
 33
        7.92480
999
FIRSTFLOOR_PLENUM:PERIMETER_BOT_PLENUM_WALL_NORTH
  0
3DFACE
  8
FIRSTFLOOR_PLENUM
 62
 43
 10
       49.91100
 20
       33.27380
 30
        3.96240
 11
       49.91100
 21
       33.27380
 31
        2.74320
 12
        0.00000
 22
       33.27380
 32
        2.74320
 13
        0.00000
 23
       33.27380
 33
        3.96240
999
FIRSTFLOOR_PLENUM:PERIMETER_BOT_PLENUM_WALL_EAST
  0
3DFACE
  8
FIRSTFLOOR_PLENUM
 62
 43
 10
       49.91100
 20
        0.00000
 30
        3.96240
 11
       49.91100
 21
        0.00000
 31
        2.74320
 12
       49.91100
 22
       33.27380
 32
        2.74320
 13
       49.91100
 23
       33.27380
 33
        3.96240
999
FIRSTFLOOR_PLENUM:PERIMETER_BOT_PLENUM_WALL_SOUTH
  0
3DFACE
  8
FIRSTFLOOR_PLENUM
 62
 43
 10
        0.00000
 20
        0.00000
 30
        3.96240
 11
        0.00000
 21
        0.00000
 31
        2.74320
 12
       49.91100
 22
        0.00000
 32
        2.74320
 13
       49.91100
 23
        0.00000
 33
        3.96240
999
FIRSTFLOOR_PLENUM:PERIMETER_BOT_PLENUM_WALL_WEST
  0
3DFACE
  8
FIRSTFLOOR_PLENUM
 62
 43
 10
        0.00000
 20
       33.27380
 30
        3.96240
 11
        0.00000
 21
       33.27380
 31
        2.74320
 12
        0.00000
 22
        0.00000
 32
        2.74320
 13
        0.00000
 23
        0.00000
 33
        3.96240
999
FIRSTFLOOR_PLENUM:iz-PERIMETER_BOT_ZN_1_CEILING
  0
3DFACE
  8
FIRSTFLOOR_PLENUM
 62
  8
 10
        0.00000
 20
        0.00000
 30
        2.74320
 11
        4.57320
 21
        4.57320
 31
        2.74320
 12
       45.33750
 22
        4.57320
 32
        2.74320
 13
       49.91100
 23
        0.00000
 33
        2.74320
999
FIRSTFLOOR_PLENUM:iz-PERIMETER_BOT_ZN_2_CEILING
  0
3DFACE
  8
FIRSTFLOOR_PLENUM
 62
  8
 10
       49.91100
 20
        0.00000
 30
        2.74320
 11
       45.33750
 21
        4.57320
 31
        2.74320
 12
       45.33750
 22
       28.70060
 32
        2.74320
 13
       49.91100
 23
       33.27380
 33
        2.74320
999
FIRSTFLOOR_PLENUM:iz-PERIMETER_BOT_ZN_3_CEILING
  0
3DFACE
  8
FIRSTFLOOR_PLENUM
 62
  8
 10
       49.91100
 20
       33.27380
 30
        2.74320
 11
       45.33750
 21
       28.70060
 31
        2.74320
 12
        4.57320
 22
       28.70060
 32
        2.74320
 13
        0.00000
 23
       33.27380
 33
        2.74320
999
FIRSTFLOOR_PLENUM:iz-PERIMETER_BOT_ZN_4_CEILING
  0
3DFACE
  8
FIRSTFLOOR_PLENUM
 62
  8
 10
        0.00000
 20
       33.27380
 30
        2.74320
 11
        4.57320
 21
       28.70060
 31
        2.74320
 12
        4.57320
 22
        4.57320
 32
        2.74320
 13
        0.00000
 23
        0.00000
 33
        2.74320
999
FIRSTFLOOR_PLENUM:iz-CORE_BOT_ZN_5_CEILING
  0
3DFACE
  8
FIRSTFLOOR_PLENUM
 62
  8
 10
       45.33750
 20
       28.70060
 30
        2.74320
 11
       45.33750
 21
        4.57320
 31
        2.74320
 12
        4.57320
 22
        4.57320
 32
        2.74320
 13
        4.57320
 23
       28.70060
 33
        2.74320
999
FIRSTFLOOR_PLENUM:iz-PERIMETER_MID_ZN_1_FLOOR
  0
3DFACE
  8
FIRSTFLOOR_PLENUM
 62
 15
 10
       49.91100
 20
        0.00000
 30
        3.96240
 11
       45.33750
 21
        4.57320
 31
        3.96240
 12
        4.57320
 22
        4.57320
 32
        3.96240
 13
        0.00000
 23
        0.00000
 33
        3.96240
999
FIRSTFLOOR_PLENUM:iz-PERIMETER_MID_ZN_2_FLOOR
  0
3DFACE
  8
FIRSTFLOOR_PLENUM
 62
 15
 10
       49.91100
 20
       33.27380
 30
        3.96240
 11
       45.33750
 21
       28.70060
 31
        3.96240
 12
       45.33750
 22
        4.57320
 32
        3.96240
 13
       49.91100
 23
        0.00000
 33
        3.96240
999
FIRSTFLOOR_PLENUM:iz-PERIMETER_MID_ZN_3_FLOOR
  0
3DFACE
  8
FIRSTFLOOR_PLENUM
 62
 15
 10
        0.00000
 20
       33.27380
 30
        3.96240
 11
        4.57320
 21
       28.70060
 31
        3.96240
 12
       45.33750
 22
       28.70060
 32
        3.96240
 13
       49.91100
 23
       33.27380
 33
        3.96240
999
FIRSTFLOOR_PLENUM:iz-PERIMETER_MID_ZN_4_FLOOR
  0
3DFACE
  8
FIRSTFLOOR_PLENUM
 62
 15
 10
        0.00000
 20
        0.00000
 30
        3.96240
 11
        4.57320
 21
        4.57320
 31
        3.96240
 12
        4.57320
 22
       28.70060
 32
        3.96240
 13
        0.00000
 23
       33.27380
 33
        3.96240
999
FIRSTFLOOR_PLENUM:iz-CORE_MID_ZN_5_FLOOR
  0
3DFACE
  8
FIRSTFLOOR_PLENUM
 62
 15
 10
        4.57320
 20
       28.70060
 30
        3.96240
 11
        4.57320
 21
        4.57320
 31
        3.96240
 12
       45.33750
 22
        4.57320
 32
        3.96240
 13
       45.33750
 23
       28.70060
 33
        3.96240
999
CORE_MID:CORE_MID_ZN_5_WALL_NORTH
  0
3DFACE
  8
CORE_MID
 62
 43
 10
       45.33750
 20
       28.70060
 30
        6.70560
 11
       45.33750
 21
       28.70060
 31
        3.96240
 12
        4.57320
 22
       28.70060
 32
        3.96240
 13
        4.57320
 23
       28.70060
 33
        6.70560
999
CORE_MID:CORE_MID_ZN_5_WALL_EAST
  0
3DFACE
  8
CORE_MID
 62
 43
 10
       45.33750
 20
        4.57320
 30
        6.70560
 11
       45.33750
 21
        4.57320
 31
        3.96240
 12
       45.33750
 22
       28.70060
 32
        3.96240
 13
       45.33750
 23
       28.70060
 33
        6.70560
999
CORE_MID:CORE_MID_ZN_5_WALL_SOUTH
  0
3DFACE
  8
CORE_MID
 62
 43
 10
        4.57320
 20
        4.57320
 30
        6.70560
 11
        4.57320
 21
        4.57320
 31
        3.96240
 12
       45.33750
 22
        4.57320
 32
        3.96240
 13
       45.33750
 23
        4.57320
 33
        6.70560
999
CORE_MID:CORE_MID_ZN_5_WALL_WEST
  0
3DFACE
  8
CORE_MID
 62
 43
 10
        4.57320
 20
       28.70060
 30
        6.70560
 11
        4.57320
 21
       28.70060
 31
        3.96240
 12
        4.57320
 22
        4.57320
 32
        3.96240
 13
        4.57320
 23
        4.57320
 33
        6.70560
999
CORE_MID:CORE_MID_ZN_5_FLOOR
  0
3DFACE
  8
CORE_MID
 62
  8
 10
       45.33750
 20
       28.70060
 30
        3.96240
 11
       45.33750
 21
        4.57320
 31
        3.96240
 12
        4.57320
 22
        4.57320
 32
        3.96240
 13
        4.57320
 23
       28.70060
 33
        3.96240
999
CORE_MID:CORE_MID_ZN_5_CEILING
  0
3DFACE
  8
CORE_MID
 62
 15
 10
        4.57320
 20
       28.70060
 30
        6.70560
 11
        4.57320
 21
        4.57320
 31
        6.70560
 12
       45.33750
 22
        4.57320
 32
        6.70560
 13
       45.33750
 23
       28.70060
 33
        6.70560
999
CORE_TOP:CORE_TOP_ZN_5_WALL_NORTH
  0
3DFACE
  8
CORE_TOP
 62
 43
 10
       45.33750
 20
       28.70060
 30
       10.66800
 11
       45.33750
 21
       28.70060
 31
        7.92480
 12
        4.57320
 22
       28.70060
 32
        7.92480
 13
        4.57320
 23
       28.70060
 33
       10.66800
999
CORE_TOP:CORE_TOP_ZN_5_WALL_EAST
  0
3DFACE
  8
CORE_TOP
 62
 43
 10
       45.33750
 20
        4.57320
 30
       10.66800
 11
       45.33750
 21
        4.57320
 31
        7.92480
 12
       45.33750
 22
       28.70060
 32
        7.92480
 13
       45.33750
 23
       28.70060
 33
       10.66800
999
CORE_TOP:CORE_TOP_ZN_5_WALL_SOUTH
  0
3DFACE
  8
CORE_TOP
 62
 43
 10
        4.57320
 20
        4.57320
 30
       10.66800
 11
        4.57320
 21
        4.57320
 31
        7.92480
 12
       45.33750
 22
        4.57320
 32
        7.92480
 13
       45.33750
 23
        4.57320
 33
       10.66800
999
CORE_TOP:CORE_TOP_ZN_5_WALL_WEST
  0
3DFACE
  8
CORE_TOP
 62
 43
 10
        4.57320
 20
       28.70060
 30
       10.66800
 11
        4.57320
 21
       28.70060
 31
        7.92480
 12
        4.57320
 22
        4.57320
 32
        7.92480
 13
        4.57320
 23
        4.57320
 33
       10.66800
999
CORE_TOP:CORE_TOP_ZN_5_FLOOR
  0
3DFACE
  8
CORE_TOP
 62
  8
 10
       45.33750
 20
       28.70060
 30
        7.92480
 11
       45.33750
 21
        4.57320
 31
        7.92480
 12
        4.57320
 22
        4.57320
 32
        7.92480
 13
        4.57320
 23
       28.70060
 33
        7.92480
999
CORE_TOP:CORE_TOP_ZN_5_CEILING
  0
3DFACE
  8
CORE_TOP
 62
 15
 10
       45.33750
 20
        4.57320
 30
       10.66800
 11
       45.33750
 21
       28.70060
 31
       10.66800
 12
        4.57320
 22
       28.70060
 32
       10.66800
 13
        4.57320
 23
        4.57320
 33
       10.66800
999
PERIMETER_TOP_ZN_3:PERIMETER_TOP_ZN_3_WALL_NORTH
  0
3DFACE
  8
PERIMETER_TOP_ZN_3
 62
 43
 10
       49.91100
 20
       33.27380
 30
       10.66800
 11
       49.91100
 21
       33.27380
 31
        7.92480
 12
        0.00000
 22
       33.27380
 32
        7.92480
 13
        0.00000
 23
       33.27380
 33
       10.66800
999
PERIMETER_TOP_ZN_3:PERIMETER_TOP_ZN_3_WALL_NORTH_WINDOW
  0
3DFACE
  8
PERIMETER_TOP_ZN_3
 62
143
 10
       49.91000
 20
       33.27380
 30
       10.25410
 11
       49.91000
 21
       33.27380
 31
        8.94651
 12
        0.00000
 22
       33.27380
 32
        8.94651
 13
        0.00000
 23
       33.27380
 33
       10.25410
999
PERIMETER_TOP_ZN_3:PERIMETER_TOP_ZN_3_WALL_WEST
  0
3DFACE
  8
PERIMETER_TOP_ZN_3
 62
 43
 10
        0.00000
 20
       33.27380
 30
       10.66800
 11
        0.00000
 21
       33.27380
 31
        7.92480
 12
        4.57320
 22
       28.70060
 32
        7.92480
 13
        4.57320
 23
       28.70060
 33
       10.66800
999
PERIMETER_TOP_ZN_3:iz-PERIMETER_TOP_ZN_2_WALL_NORTH
  0
3DFACE
  8
PERIMETER_TOP_ZN_3
 62
 43
 10
       45.33750
 20
       28.70060
 30
       10.66800
 11
       45.33750
 21
       28.70060
 31
        7.92480
 12
       49.91100
 22
       33.27380
 32
        7.92480
 13
       49.91100
 23
       33.27380
 33
       10.66800
999
PERIMETER_TOP_ZN_3:iz-CORE_TOP_ZN_5_WALL_NORTH
  0
3DFACE
  8
PERIMETER_TOP_ZN_3
 62
 43
 10
        4.57320
 20
       28.70060
 30
       10.66800
 11
        4.57320
 21
       28.70060
 31
        7.92480
 12
       45.33750
 22
       28.70060
 32
        7.92480
 13
       45.33750
 23
       28.70060
 33
       10.66800
999
PERIMETER_TOP_ZN_3:PERIMETER_TOP_ZN_3_FLOOR
  0
3DFACE
  8
PERIMETER_TOP_ZN_3
 62
  8
 10
       49.91100
 20
       33.27380
 30
        7.92480
 11
       45.33750
 21
       28.70060
 31
        7.92480
 12
        4.57320
 22
       28.70060
 32
        7.92480
 13
        0.00000
 23
       33.27380
 33
        7.92480
999
PERIMETER_TOP_ZN_3:PERIMETER_TOP_ZN_3_CEILING
  0
3DFACE
  8
PERIMETER_TOP_ZN_3
 62
 15
 10
       49.91100
 20
       33.27380
 30
       10.66800
 11
        0.00000
 21
       33.27380
 31
       10.66800
 12
        4.57320
 22
       28.70060
 32
       10.66800
 13
       45.33750
 23
       28.70060
 33
       10.66800
999
PERIMETER_TOP_ZN_2:PERIMETER_TOP_ZN_2_WALL_EAST
  0
3DFACE
  8
PERIMETER_TOP_ZN_2
 62
 43
 10
       49.91100
 20
        0.00000
 30
       10.66800
 11
       49.91100
 21
        0.00000
 31
        7.92480
 12
       49.91100
 22
       33.27380
 32
        7.92480
 13
       49.91100
 23
       33.27380
 33
       10.66800
999
PERIMETER_TOP_ZN_2:PERIMETER_TOP_ZN_2_WALL_EAST_WINDOW
  0
3DFACE
  8
PERIMETER_TOP_ZN_2
 62
143
 10
       49.91100
 20
        0.00000
 30
       10.25410
 11
       49.91100
 21
        0.00000
 31
        8.94651
 12
       49.91100
 22
       33.27370
 32
        8.94651
 13
       49.91100
 23
       33.27370
 33
       10.25410
999
PERIMETER_TOP_ZN_2:PERIMETER_TOP_ZN_2_WALL_NORTH
  0
3DFACE
  8
PERIMETER_TOP_ZN_2
 62
 43
 10
       49.91100
 20
       33.27380
 30
       10.66800
 11
       49.91100
 21
       33.27380
 31
        7.92480
 12
       45.33750
 22
       28.70060
 32
        7.92480
 13
       45.33750
 23
       28.70060
 33
       10.66800
999
PERIMETER_TOP_ZN_2:iz-PERIMETER_TOP_ZN_1_WALL_EAST
  0
3DFACE
  8
PERIMETER_TOP_ZN_2
 62
 43
 10
       45.33750
 20
        4.57320
 30
       10.66800
 11
       45.33750
 21
        4.57320
 31
        7.92480
 12
       49.91100
 22
        0.00000
 32
        7.92480
 13
       49.91100
 23
        0.00000
 33
       10.66800
999
PERIMETER_TOP_ZN_2:iz-CORE_TOP_ZN_5_WALL_EAST
  0
3DFACE
  8
PERIMETER_TOP_ZN_2
 62
 43
 10
       45.33750
 20
       28.70060
 30
       10.66800
 11
       45.33750
 21
       28.70060
 31
        7.92480
 12
       45.33750
 22
        4.57320
 32
        7.92480
 13
       45.33750
 23
        4.57320
 33
       10.66800
999
PERIMETER_TOP_ZN_2:PERIMETER_TOP_ZN_2_FLOOR
  0
3DFACE
  8
PERIMETER_TOP_ZN_2
 62
  8
 10
       49.91100
 20
        0.00000
 30
        7.92480
 11
       45.33750
 21
        4.57320
 31
        7.92480
 12
       45.33750
 22
       28.70060
 32
        7.92480
 13
       49.91100
 23
       33.27380
 33
        7.92480
999
PERIMETER_TOP_ZN_2:PERIMETER_TOP_ZN_2_CEILING
  0
3DFACE
  8
PERIMETER_TOP_ZN_2
 62
 15
 10
       49.91100
 20
        0.00000
 30
       10.66800
 11
       49.91100
 21
       33.27380
 31
       10.66800
 12
       45.33750
 22
       28.70060
 32
       10.66800
 13
       45.33750
 23
        4.57320
 33
       10.66800
999
PERIMETER_TOP_ZN_1:PERIMETER_TOP_ZN_1_WALL_SOUTH
  0
3DFACE
  8
PERIMETER_TOP_ZN_1
 62
 43
 10
        0.00000
 20
        0.00000
 30
       10.66800
 11
        0.00000
 21
        0.00000
 31
        7.92480
 12
       49.91100
 22
        0.00000
 32
        7.92480
 13
       49.91100
 23
        0.00000
 33
       10.66800
999
PERIMETER_TOP_ZN_1:PERIMETER_TOP_ZN_1_WALL_SOUTH_WINDOW
  0
3DFACE
  8
PERIMETER_TOP_ZN_1
 62
143
 10
        0.00000
 20
        0.00000
 30
       10.25410
 11
        0.00000
 21
        0.00000
 31
        8.94651
 12
       49.91000
 22
        0.00000
 32
        8.94651
 13
       49.91000
 23
        0.00000
 33
       10.25410
999
PERIMETER_TOP_ZN_1:PERIMETER_TOP_ZN_1_WALL_EAST
  0
3DFACE
  8
PERIMETER_TOP_ZN_1
 62
 43
 10
       49.91100
 20
        0.00000
 30
       10.66800
 11
       49.91100
 21
        0.00000
 31
        7.92480
 12
       45.33750
 22
        4.57320
 32
        7.92480
 13
       45.33750
 23
        4.57320
 33
       10.66800
999
PERIMETER_TOP_ZN_1:iz-PERIMETER_TOP_ZN_4_WALL_SOUTH
  0
3DFACE
  8
PERIMETER_TOP_ZN_1
 62
 43
 10
        4.57320
 20
        4.57320
 30
       10.66800
 11
        4.57320
 21
        4.57320
 31
        7.92480
 12
        0.00000
 22
        0.00000
 32
        7.92480
 13
        0.00000
 23
        0.00000
 33
       10.66800
999
PERIMETER_TOP_ZN_1:iz-CORE_TOP_ZN_5_WALL_SOUTH
  0
3DFACE
  8
PERIMETER_TOP_ZN_1
 62
 43
 10
       45.33750
 20
        4.57320
 30
       10.66800
 11
       45.33750
 21
        4.57320
 31
        7.92480
 12
        4.57320
 22
        4.57320
 32
        7.92480
 13
        4.57320
 23
        4.57320
 33
       10.66800
999
PERIMETER_TOP_ZN_1:PERIMETER_TOP_ZN_1_FLOOR
  0
3DFACE
  8
PERIMETER_TOP_ZN_1
 62
  8
 10
        0.00000
 20
        0.00000
 30
        7.92480
 11
        4.57320
 21
        4.57320
 31
        7.92480
 12
       45.33750
 22
        4.57320
 32
        7.92480
 13
       49.91100
 23
        0.00000
 33
        7.92480
999
PERIMETER_TOP_ZN_1:PERIMETER_TOP_ZN_1_CEILING
  0
3DFACE
  8
PERIMETER_TOP_ZN_1
 62
 15
 10
        0.00000
 20
        0.00000
 30
       10.66800
 11
       49.91100
 21
        0.00000
 31
       10.66800
 12
       45.33750
 22
        4.57320
 32
       10.66800
 13
        4.57320
 23
        4.57320
 33
       10.66800
999
PERIMETER_TOP_ZN_4:PERIMETER_TOP_ZN_4_WALL_WEST
  0
3DFACE
  8
PERIMETER_TOP_ZN_4
 62
 43
 10
        0.00000
 20
       33.27380
 30
       10.66800
 11
        0.00000
 21
       33.27380
 31
        7.92480
 12
        0.00000
 22
        0.00000
 32
        7.92480
 13
        0.00000
 23
        0.00000
 33
       10.66800
999
PERIMETER_TOP_ZN_4:PERIMETER_TOP_ZN_4_WALL_WEST_WINDOW
  0
3DFACE
  8
PERIMETER_TOP_ZN_4
 62
143
 10
        0.00000
 20
       33.27370
 30
       10.25410
 11
        0.00000
 21
       33.27370
 31
        8.94651
 12
        0.00000
 22
        0.00000
 32
        8.94651
 13
        0.00000
 23
        0.00000
 33
       10.25410
999
PERIMETER_TOP_ZN_4:PERIMETER_TOP_ZN_4_WALL_SOUTH
  0
3DFACE
  8
PERIMETER_TOP_ZN_4
 62
 43
 10
        0.00000
 20
        0.00000
 30
       10.66800
 11
        0.00000
 21
        0.00000
 31
        7.92480
 12
        4.57320
 22
        4.57320
 32
        7.92480
 13
        4.57320
 23
        4.57320
 33
       10.66800
999
PERIMETER_TOP_ZN_4:iz-PERIMETER_TOP_ZN_3_WALL_WEST
  0
3DFACE
  8
PERIMETER_TOP_ZN_4
 62
 43
 10
        4.57320
 20
       28.70060
 30
       10.66800
 11
        4.57320
 21
       28.70060
 31
        7.92480
 12
        0.00000
 22
       33.27380
 32
        7.92480
 13
        0.00000
 23
       33.27380
 33
       10.66800
999
PERIMETER_TOP_ZN_4:iz-CORE_TOP_ZN_5_WALL_WEST
  0
3DFACE
  8
PERIMETER_TOP_ZN_4
 62
 43
 10
        4.57320
 20
        4.57320
 30
       10.66800
 11
        4.57320
 21
        4.57320
 31
        7.92480
 12
        4.57320
 22
       28.70060
 32
        7.92480
 13
        4.57320
 23
       28.70060
 33
       10.66800
999
PERIMETER_TOP_ZN_4:PERIMETER_TOP_ZN_4_FLOOR
  0
3DFACE
  8
PERIMETER_TOP_ZN_4
 62
  8
 10
        0.00000
 20
       33.27380
 30
        7.92480
 11
        4.57320
 21
       28.70060
 31
        7.92480
 12
        4.57320
 22
        4.57320
 32
        7.92480
 13
        0.00000
 23
        0.00000
 33
        7.92480
999
PERIMETER_TOP_ZN_4:PERIMETER_TOP_ZN_4_CEILING
  0
3DFACE
  8
PERIMETER_TOP_ZN_4
 62
 15
 10
        0.00000
 20
       33.27380
 30
       10.66800
 11
        0.00000
 21
        0.00000
 31
       10.66800
 12
        4.57320
 22
        4.57320
 32
       10.66800
 13
        4.57320
 23
       28.70060
 33
       10.66800
999
PERIMETER_BOT_ZN_3:PERIMETER_BOT_ZN_3_WALL_NORTH
  0
3DFACE
  8
PERIMETER_BOT_ZN_3
 62
 43
 10
       49.91100
 20
       33.27380
 30
        2.74320
 11
       49.91100
 21
       33.27380
 31
        0.00000
 12
        0.00000
 22
       33.27380
 32
        0.00000
 13
        0.00000
 23
       33.27380
 33
        2.74320
999
PERIMETER_BOT_ZN_3:PERIMETER_BOT_ZN_3_WALL_NORTH_WINDOW1
  0
3DFACE
  8
PERIMETER_BOT_ZN_3
 62
143
 10
       49.91000
 20
       33.27380
 30
        2.32930
 11
       49.91000
 21
       33.27380
 31
        0.95455
 12
       34.08680
 22
       33.27380
 32
        0.95455
 13
       34.08680
 23
       33.27380
 33
        2.32930
999
PERIMETER_BOT_ZN_3:PERIMETER_BOT_ZN_3_WALL_NORTH_WINDOW2
  0
3DFACE
  8
PERIMETER_BOT_ZN_3
 62
143
 10
       32.86760
 20
       33.27380
 30
        2.32930
 11
       32.86760
 21
       33.27380
 31
        0.95455
 12
       17.04340
 22
       33.27380
 32
        0.95455
 13
       17.04340
 23
       33.27380
 33
        2.32930
999
PERIMETER_BOT_ZN_3:PERIMETER_BOT_ZN_3_WALL_NORTH_WINDOW3
  0
3DFACE
  8
PERIMETER_BOT_ZN_3
 62
143
 10
       15.82420
 20
       33.27380
 30
        2.32930
 11
       15.82420
 21
       33.27380
 31
        0.95455
 12
        0.00000
 22
       33.27380
 32
        0.95455
 13
        0.00000
 23
       33.27380
 33
        2.32930
999
PERIMETER_BOT_ZN_3:PERIMETER_BOT_ZN_3_WALL_NORTH_DOOR1
  0
3DFACE
  8
PERIMETER_BOT_ZN_3
 62
 45
 10
       33.94469
 20
       33.27380
 30
        2.13360
 11
       33.94469
 21
       33.27380
 31
        0.00000
 12
       33.03029
 22
       33.27380
 32
        0.00000
 13
       33.03029
 23
       33.27380
 33
        2.13360
999
PERIMETER_BOT_ZN_3:PERIMETER_BOT_ZN_3_WALL_NORTH_DOOR2
  0
3DFACE
  8
PERIMETER_BOT_ZN_3
 62
 45
 10
       16.84334
 20
       33.27380
 30
        2.13360
 11
       16.84334
 21
       33.27380
 31
        0.00000
 12
       15.92894
 22
       33.27380
 32
        0.00000
 13
       15.92894
 23
       33.27380
 33
        2.13360
999
PERIMETER_BOT_ZN_3:PERIMETER_BOT_ZN_3_WALL_WEST
  0
3DFACE
  8
PERIMETER_BOT_ZN_3
 62
 43
 10
        0.00000
 20
       33.27380
 30
        2.74320
 11
        0.00000
 21
       33.27380
 31
        0.00000
 12
        4.57320
 22
       28.70060
 32
        0.00000
 13
        4.57320
 23
       28.70060
 33
        2.74320
999
PERIMETER_BOT_ZN_3:iz-PERIMETER_BOT_ZN_2_WALL_NORTH
  0
3DFACE
  8
PERIMETER_BOT_ZN_3
 62
 43
 10
       45.33750
 20
       28.70060
 30
        2.74320
 11
       45.33750
 21
       28.70060
 31
        0.00000
 12
       49.91100
 22
       33.27380
 32
        0.00000
 13
       49.91100
 23
       33.27380
 33
        2.74320
999
PERIMETER_BOT_ZN_3:iz-CORE_BOT_ZN_5_WALL_NORTH
  0
3DFACE
  8
PERIMETER_BOT_ZN_3
 62
 43
 10
        4.57320
 20
       28.70060
 30
        2.74320
 11
        4.57320
 21
       28.70060
 31
        0.00000
 12
       45.33750
 22
       28.70060
 32
        0.00000
 13
       45.33750
 23
       28.70060
 33
        2.74320
999
PERIMETER_BOT_ZN_3:PERIMETER_BOT_ZN_3_FLOOR
  0
3DFACE
  8
PERIMETER_BOT_ZN_3
 62
  8
 10
       49.91100
 20
       33.27380
 30
        0.00000
 11
       45.33750
 21
       28.70060
 31
        0.00000
 12
        4.57320
 22
       28.70060
 32
        0.00000
 13
        0.00000
 23
       33.27380
 33
        0.00000
999
PERIMETER_BOT_ZN_3:PERIMETER_BOT_ZN_3_CEILING
  0
3DFACE
  8
PERIMETER_BOT_ZN_3
 62
 15
 10
        0.00000
 20
       33.27380
 30
        2.74320
 11
        4.57320
 21
       28.70060
 31
        2.74320
 12
       45.33750
 22
       28.70060
 32
        2.74320
 13
       49.91100
 23
       33.27380
 33
        2.74320
999
PERIMETER_BOT_ZN_2:PERIMETER_BOT_ZN_2_WALL_EAST
  0
3DFACE
  8
PERIMETER_BOT_ZN_2
 62
 43
 10
       49.91100
 20
        0.00000
 30
        2.74320
 11
       49.91100
 21
        0.00000
 31
        0.00000
 12
       49.91100
 22
       33.27380
 32
        0.00000
 13
       49.91100
 23
       33.27380
 33
        2.74320
999
PERIMETER_BOT_ZN_2:PERIMETER_BOT_ZN_2_WALL_EAST_WINDOW1
  0
3DFACE
  8
PERIMETER_BOT_ZN_2
 62
143
 10
       49.91100
 20
        0.00000
 30
        2.32930
 11
       49.91100
 21
        0.00000
 31
        0.97197
 12
       49.91100
 22
       30.83530
 32
        0.97197
 13
       49.91100
 23
       30.83530
 33
        2.32930
999
PERIMETER_BOT_ZN_2:PERIMETER_BOT_ZN_2_WALL_EAST_WINDOW2
  0
3DFACE
  8
PERIMETER_BOT_ZN_2
 62
143
 10
       49.91100
 20
       32.05450
 30
        2.32930
 11
       49.91100
 21
       32.05450
 31
        0.97197
 12
       49.91100
 22
       33.27370
 32
        0.97197
 13
       49.91100
 23
       33.27370
 33
        2.32930
999
PERIMETER_BOT_ZN_2:PERIMETER_BOT_ZN_2_WALL_EAST_DOOR
  0
3DFACE
  8
PERIMETER_BOT_ZN_2
 62
 45
 10
       49.91100
 20
       30.98520
 30
        2.13360
 11
       49.91100
 21
       30.98520
 31
        0.00000
 12
       49.91100
 22
       31.89960
 32
        0.00000
 13
       49.91100
 23
       31.89960
 33
        2.13360
999
PERIMETER_BOT_ZN_2:PERIMETER_BOT_ZN_2_WALL_NORTH
  0
3DFACE
  8
PERIMETER_BOT_ZN_2
 62
 43
 10
       49.91100
 20
       33.27380
 30
        2.74320
 11
       49.91100
 21
       33.27380
 31
        0.00000
 12
       45.33750
 22
       28.70060
 32
        0.00000
 13
       45.33750
 23
       28.70060
 33
        2.74320
999
PERIMETER_BOT_ZN_2:iz-PERIMETER_BOT_ZN_1_WALL_EAST
  0
3DFACE
  8
PERIMETER_BOT_ZN_2
 62
 43
 10
       45.33750
 20
        4.57320
 30
        2.74320
 11
       45.33750
 21
        4.57320
 31
        0.00000
 12
       49.91100
 22
        0.00000
 32
        0.00000
 13
       49.91100
 23
        0.00000
 33
        2.74320
999
PERIMETER_BOT_ZN_2:iz-CORE_BOT_ZN_5_WALL_EAST
  0
3DFACE
  8
PERIMETER_BOT_ZN_2
 62
 43
 10
       45.33750
 20
       28.70060
 30
        2.74320
 11
       45.33750
 21
       28.70060
 31
        0.00000
 12
       45.33750
 22
        4.57320
 32
        0.00000
 13
       45.33750
 23
        4.57320
 33
        2.74320
999
PERIMETER_BOT_ZN_2:PERIMETER_BOT_ZN_2_FLOOR
  0
3DFACE
  8
PERIMETER_BOT_ZN_2
 62
  8
 10
       49.91100
 20
        0.00000
 30
        0.00000
 11
       45.33750
 21
        4.57320
 31
        0.00000
 12
       45.33750
 22
       28.70060
 32
        0.00000
 13
       49.91100
 23
       33.27380
 33
        0.00000
999
PERIMETER_BOT_ZN_2:PERIMETER_BOT_ZN_2_CEILING
  0
3DFACE
  8
PERIMETER_BOT_ZN_2
 62
 15
 10
       49.91100
 20
       33.27380
 30
        2.74320
 11
       45.33750
 21
       28.70060
 31
        2.74320
 12
       45.33750
 22
        4.57320
 32
        2.74320
 13
       49.91100
 23
        0.00000
 33
        2.74320
999
PERIMETER_BOT_ZN_1:PERIMETER_BOT_ZN_1_WALL_SOUTH
  0
3DFACE
  8
PERIMETER_BOT_ZN_1
 62
 43
 10
        0.00000
 20
        0.00000
 30
        2.74320
 11
        0.00000
 21
        0.00000
 31
        0.00000
 12
       49.91100
 22
        0.00000
 32
        0.00000
 13
       49.91100
 23
        0.00000
 33
        2.74320
999
PERIMETER_BOT_ZN_1:PERIMETER_BOT_ZN_1_WALL_SOUTH_WINDOW1
  0
3DFACE
  8
PERIMETER_BOT_ZN_1
 62
143
 10
        0.00000
 20
        0.00000
 30
        2.32930
 11
        0.00000
 21
        0.00000
 31
        0.95455
 12
       15.82420
 22
        0.00000
 32
        0.95455
 13
       15.82420
 23
        0.00000
 33
        2.32930
999
PERIMETER_BOT_ZN_1:PERIMETER_BOT_ZN_1_WALL_SOUTH_WINDOW2
  0
3DFACE
  8
PERIMETER_BOT_ZN_1
 62
143
 10
       17.04340
 20
        0.00000
 30
        2.32930
 11
       17.04340
 21
        0.00000
 31
        0.95455
 12
       32.86760
 22
        0.00000
 32
        0.95455
 13
       32.86760
 23
        0.00000
 33
        2.32930
999
PERIMETER_BOT_ZN_1:PERIMETER_BOT_ZN_1_WALL_SOUTH_WINDOW3
  0
3DFACE
  8
PERIMETER_BOT_ZN_1
 62
143
 10
       34.08680
 20
        0.00000
 30
        2.32930
 11
       34.08680
 21
        0.00000
 31
        0.95455
 12
       49.91000
 22
        0.00000
 32
        0.95455
 13
       49.91000
 23
        0.00000
 33
        2.32930
999
PERIMETER_BOT_ZN_1:PERIMETER_BOT_ZN_1_WALL_SOUTH_DOOR1
  0
3DFACE
  8
PERIMETER_BOT_ZN_1
 62
 45
 10
       15.98259
 20
        0.00000
 30
        2.13360
 11
       15.98259
 21
        0.00000
 31
        0.00000
 12
       16.89699
 22
        0.00000
 32
        0.00000
 13
       16.89699
 23
        0.00000
 33
        2.13360
999
PERIMETER_BOT_ZN_1:PERIMETER_BOT_ZN_1_WALL_SOUTH_DOOR2
  0
3DFACE
  8
PERIMETER_BOT_ZN_1
 62
 45
 10
       33.01130
 20
        0.00000
 30
        2.13360
 11
       33.01130
 21
        0.00000
 31
        0.00000
 12
       33.92570
 22
        0.00000
 32
        0.00000
 13
       33.92570
 23
        0.00000
 33
        2.13360
999
PERIMETER_BOT_ZN_1:PERIMETER_BOT_ZN_1_WALL_EAST
  0
3DFACE
  8
PERIMETER_BOT_ZN_1
 62
 43
 10
       49.91100
 20
        0.00000
 30
        2.74320
 11
       49.91100
 21
        0.00000
 31
        0.00000
 12
       45.33750
 22
        4.57320
 32
        0.00000
 13
       45.33750
 23
        4.57320
 33
        2.74320
999
PERIMETER_BOT_ZN_1:iz-PERIMETER_BOT_ZN_4_WALL_SOUTH
  0
3DFACE
  8
PERIMETER_BOT_ZN_1
 62
 43
 10
        4.57320
 20
        4.57320
 30
        2.74320
 11
        4.57320
 21
        4.57320
 31
        0.00000
 12
        0.00000
 22
        0.00000
 32
        0.00000
 13
        0.00000
 23
        0.00000
 33
        2.74320
999
PERIMETER_BOT_ZN_1:iz-CORE_BOT_ZN_5_WALL_SOUTH
  0
3DFACE
  8
PERIMETER_BOT_ZN_1
 62
 43
 10
       45.33750
 20
        4.57320
 30
        2.74320
 11
       45.33750
 21
        4.57320
 31
        0.00000
 12
        4.57320
 22
        4.57320
 32
        0.00000
 13
        4.57320
 23
        4.57320
 33
        2.74320
999
PERIMETER_BOT_ZN_1:PERIMETER_BOT_ZN_1_FLOOR
  0
3DFACE
  8
PERIMETER_BOT_ZN_1
 62
  8
 10
        0.00000
 20
        0.00000
 30
        0.00000
 11
        4.57320
 21
        4.57320
 31
        0.00000
 12
       45.33750
 22
        4.57320
 32
        0.00000
 13
       49.91100
 23
        0.00000
 33
        0.00000
999
PERIMETER_BOT_ZN_1:PERIMETER_BOT_ZN_1_CEILING
  0
3DFACE
  8
PERIMETER_BOT_ZN_1
 62
 15
 10
       49.91100
 20
        0.00000
 30
        2.74320
 11
       45.33750
 21
        4.57320
 31
        2.74320
 12
        4.57320
 22
        4.57320
 32
        2.74320
 13
        0.00000
 23
        0.00000
 33
        2.74320
999
PERIMETER_BOT_ZN_4:PERIMETER_BOT_ZN_4_WALL_WEST
  0
3DFACE
  8
PERIMETER_BOT_ZN_4
 62
 43
 10
        0.00000
 20
       33.27380
 30
        2.74320
 11
        0.00000
 21
       33.27380
 31
        0.00000
 12
        0.00000
 22
        0.00000
 32
        0.00000
 13
        0.00000
 23
        0.00000
 33
        2.74320
999
PERIMETER_BOT_ZN_4:PERIMETER_BOT_ZN_4_WALL_WEST_WINDOW1
  0
3DFACE
  8
PERIMETER_BOT_ZN_4
 62
143
 10
        0.00000
 20
       33.27370
 30
        2.32930
 11
        0.00000
 21
       33.27370
 31
        0.97197
 12
        0.00000
 22
        2.43840
 32
        0.97197
 13
        0.00000
 23
        2.43840
 33
        2.32930
999
PERIMETER_BOT_ZN_4:PERIMETER_BOT_ZN_4_WALL_WEST_WINDOW2
  0
3DFACE
  8
PERIMETER_BOT_ZN_4
 62
143
 10
        0.00000
 20
        1.21920
 30
        2.32930
 11
        0.00000
 21
        1.21920
 31
        0.97197
 12
        0.00000
 22
        0.00000
 32
        0.97197
 13
        0.00000
 23
        0.00000
 33
        2.32930
999
PERIMETER_BOT_ZN_4:PERIMETER_BOT_ZN_4_WALL_WEST_DOOR
  0
3DFACE
  8
PERIMETER_BOT_ZN_4
 62
 45
 10
        0.00000
 20
        2.27959
 30
        2.13360
 11
        0.00000
 21
        2.27959
 31
        0.00000
 12
        0.00000
 22
        1.36519
 32
        0.00000
 13
        0.00000
 23
        1.36519
 33
        2.13360
999
PERIMETER_BOT_ZN_4:PERIMETER_BOT_ZN_4_WALL_SOUTH
  0
3DFACE
  8
PERIMETER_BOT_ZN_4
 62
 43
 10
        0.00000
 20
        0.00000
 30
        2.74320
 11
        0.00000
 21
        0.00000
 31
        0.00000
 12
        4.57320
 22
        4.57320
 32
        0.00000
 13
        4.57320
 23
        4.57320
 33
        2.74320
999
PERIMETER_BOT_ZN_4:iz-PERIMETER_BOT_ZN_3_WALL_WEST
  0
3DFACE
  8
PERIMETER_BOT_ZN_4
 62
 43
 10
        4.57320
 20
       28.70060
 30
        2.74320
 11
        4.57320
 21
       28.70060
 31
        0.00000
 12
        0.00000
 22
       33.27380
 32
        0.00000
 13
        0.00000
 23
       33.27380
 33
        2.74320
999
PERIMETER_BOT_ZN_4:iz-CORE_BOT_ZN_5_WALL_WEST
  0
3DFACE
  8
PERIMETER_BOT_ZN_4
 62
 43
 10
        4.57320
 20
        4.57320
 30
        2.74320
 11
        4.57320
 21
        4.57320
 31
        0.00000
 12
        4.57320
 22
       28.70060
 32
        0.00000
 13
        4.57320
 23
       28.70060
 33
        2.74320
999
PERIMETER_BOT_ZN_4:PERIMETER_BOT_ZN_4_FLOOR
  0
3DFACE
  8
PERIMETER_BOT_ZN_4
 62
  8
 10
        0.00000
 20
       33.27380
 30
        0.00000
 11
        4.57320
 21
       28.70060
 31
        0.00000
 12
        4.57320
 22
        4.57320
 32
        0.00000
 13
        0.00000
 23
        0.00000
 33
        0.00000
999
PERIMETER_BOT_ZN_4:PERIMETER_BOT_ZN_4_CEILING
  0
3DFACE
  8
PERIMETER_BOT_ZN_4
 62
 15
 10
        0.00000
 20
        0.00000
 30
        2.74320
 11
        4.57320
 21
        4.57320
 31
        2.74320
 12
        4.57320
 22
       28.70060
 32
        2.74320
 13
        0.00000
 23
       33.27380
 33
        2.74320
999
PERIMETER_MID_ZN_3:PERIMETER_MID_ZN_3_WALL_NORTH
  0
3DFACE
  8
PERIMETER_MID_ZN_3
 62
 43
 10
       49.91100
 20
       33.27380
 30
        6.70560
 11
       49.91100
 21
       33.27380
 31
        3.96240
 12
        0.00000
 22
       33.27380
 32
        3.96240
 13
        0.00000
 23
       33.27380
 33
        6.70560
999
PERIMETER_MID_ZN_3:PERIMETER_MID_ZN_3_WALL_NORTH_WINDOW
  0
3DFACE
  8
PERIMETER_MID_ZN_3
 62
143
 10
       49.91000
 20
       33.27380
 30
        6.29170
 11
       49.91000
 21
       33.27380
 31
        4.98411
 12
        0.00000
 22
       33.27380
 32
        4.98411
 13
        0.00000
 23
       33.27380
 33
        6.29170
999
PERIMETER_MID_ZN_3:PERIMETER_MID_ZN_3_WALL_WEST
  0
3DFACE
  8
PERIMETER_MID_ZN_3
 62
 43
 10
        0.00000
 20
       33.27380
 30
        6.70560
 11
        0.00000
 21
       33.27380
 31
        3.96240
 12
        4.57320
 22
       28.70060
 32
        3.96240
 13
        4.57320
 23
       28.70060
 33
        6.70560
999
PERIMETER_MID_ZN_3:iz-PERIMETER_MID_ZN_2_WALL_NORTH
  0
3DFACE
  8
PERIMETER_MID_ZN_3
 62
 43
 10
       45.33750
 20
       28.70060
 30
        6.70560
 11
       45.33750
 21
       28.70060
 31
        3.96240
 12
       49.91100
 22
       33.27380
 32
        3.96240
 13
       49.91100
 23
       33.27380
 33
        6.70560
999
PERIMETER_MID_ZN_3:iz-CORE_MID_ZN_5_WALL_NORTH
  0
3DFACE
  8
PERIMETER_MID_ZN_3
 62
 43
 10
        4.57320
 20
       28.70060
 30
        6.70560
 11
        4.57320
 21
       28.70060
 31
        3.96240
 12
       45.33750
 22
       28.70060
 32
        3.96240
 13
       45.33750
 23
       28.70060
 33
        6.70560
999
PERIMETER_MID_ZN_3:PERIMETER_MID_ZN_3_FLOOR
  0
3DFACE
  8
PERIMETER_MID_ZN_3
 62
  8
 10
       49.91100
 20
       33.27380
 30
        3.96240
 11
       45.33750
 21
       28.70060
 31
        3.96240
 12
        4.57320
 22
       28.70060
 32
        3.96240
 13
        0.00000
 23
       33.27380
 33
        3.96240
999
PERIMETER_MID_ZN_3:PERIMETER_MID_ZN_3_CEILING
  0
3DFACE
  8
PERIMETER_MID_ZN_3
 62
 15
 10
        0.00000
 20
       33.27380
 30
        6.70560
 11
        4.57320
 21
       28.70060
 31
        6.70560
 12
       45.33750
 22
       28.70060
 32
        6.70560
 13
       49.91100
 23
       33.27380
 33
        6.70560
999
PERIMETER_MID_ZN_2:PERIMETER_MID_ZN_2_WALL_EAST
  0
3DFACE
  8
PERIMETER_MID_ZN_2
 62
 43
 10
       49.91100
 20
        0.00000
 30
        6.70560
 11
       49.91100
 21
        0.00000
 31
        3.96240
 12
       49.91100
 22
       33.27380
 32
        3.96240
 13
       49.91100
 23
       33.27380
 33
        6.70560
999
PERIMETER_MID_ZN_2:PERIMETER_MID_ZN_2_WALL_EAST_WINDOW
  0
3DFACE
  8
PERIMETER_MID_ZN_2
 62
143
 10
       49.91100
 20
        0.00000
 30
        6.29170
 11
       49.91100
 21
        0.00000
 31
        4.98411
 12
       49.91100
 22
       33.27370
 32
        4.98411
 13
       49.91100
 23
       33.27370
 33
        6.29170
999
PERIMETER_MID_ZN_2:PERIMETER_MID_ZN_2_WALL_NORTH
  0
3DFACE
  8
PERIMETER_MID_ZN_2
 62
 43
 10
       49.91100
 20
       33.27380
 30
        6.70560
 11
       49.91100
 21
       33.27380
 31
        3.96240
 12
       45.33750
 22
       28.70060
 32
        3.96240
 13
       45.33750
 23
       28.70060
 33
        6.70560
999
PERIMETER_MID_ZN_2:iz-PERIMETER_MID_ZN_1_WALL_EAST
  0
3DFACE
  8
PERIMETER_MID_ZN_2
 62
 43
 10
       45.33750
 20
        4.57320
 30
        6.70560
 11
       45.33750
 21
        4.57320
 31
        3.96240
 12
       49.91100
 22
        0.00000
 32
        3.96240
 13
       49.91100
 23
        0.00000
 33
        6.70560
999
PERIMETER_MID_ZN_2:iz-CORE_MID_ZN_5_WALL_EAST
  0
3DFACE
  8
PERIMETER_MID_ZN_2
 62
 43
 10
       45.33750
 20
       28.70060
 30
        6.70560
 11
       45.33750
 21
       28.70060
 31
        3.96240
 12
       45.33750
 22
        4.57320
 32
        3.96240
 13
       45.33750
 23
        4.57320
 33
        6.70560
999
PERIMETER_MID_ZN_2:PERIMETER_MID_ZN_2_FLOOR
  0
3DFACE
  8
PERIMETER_MID_ZN_2
 62
  8
 10
       49.91100
 20
        0.00000
 30
        3.96240
 11
       45.33750
 21
        4.57320
 31
        3.96240
 12
       45.33750
 22
       28.70060
 32
        3.96240
 13
       49.91100
 23
       33.27380
 33
        3.96240
999
PERIMETER_MID_ZN_2:PERIMETER_MID_ZN_2_CEILING
  0
3DFACE
  8
PERIMETER_MID_ZN_2
 62
 15
 10
       49.91100
 20
       33.27380
 30
        6.70560
 11
       45.33750
 21
       28.70060
 31
        6.70560
 12
       45.33750
 22
        4.57320
 32
        6.70560
 13
       49.91100
 23
        0.00000
 33
        6.70560
999
PERIMETER_MID_ZN_1:PERIMETER_MID_ZN_1_WALL_SOUTH
  0
3DFACE
  8
PERIMETER_MID_ZN_1
 62
 43
 10
        0.00000
 20
        0.00000
 30
        6.70560
 11
        0.00000
 21
        0.00000
 31
        3.96240
 12
       49.91100
 22
        0.00000
 32
        3.96240
 13
       49.91100
 23
        0.00000
 33
        6.70560
999
PERIMETER_MID_ZN_1:PERIMETER_MID_ZN_1_WALL_SOUTH_WINDOW
  0
3DFACE
  8
PERIMETER_MID_ZN_1
 62
143
 10
        0.00000
 20
        0.00000
 30
        6.29170
 11
        0.00000
 21
        0.00000
 31
        4.98411
 12
       49.91000
 22
        0.00000
 32
        4.98411
 13
       49.91000
 23
        0.00000
 33
        6.29170
999
PERIMETER_MID_ZN_1:PERIMETER_MID_ZN_1_WALL_EAST
  0
3DFACE
  8
PERIMETER_MID_ZN_1
 62
 43
 10
       49.91100
 20
        0.00000
 30
        6.70560
 11
       49.91100
 21
        0.00000
 31
        3.96240
 12
       45.33750
 22
        4.57320
 32
        3.96240
 13
       45.33750
 23
        4.57320
 33
        6.70560
999
PERIMETER_MID_ZN_1:iz-PERIMETER_MID_ZN_4_WALL_SOUTH
  0
3DFACE
  8
PERIMETER_MID_ZN_1
 62
 43
 10
        4.57320
 20
        4.57320
 30
        6.70560
 11
        4.57320
 21
        4.57320
 31
        3.96240
 12
        0.00000
 22
        0.00000
 32
        3.96240
 13
        0.00000
 23
        0.00000
 33
        6.70560
999
PERIMETER_MID_ZN_1:iz-CORE_MID_ZN_5_WALL_SOUTH
  0
3DFACE
  8
PERIMETER_MID_ZN_1
 62
 43
 10
       45.33750
 20
        4.57320
 30
        6.70560
 11
       45.33750
 21
        4.57320
 31
        3.96240
 12
        4.57320
 22
        4.57320
 32
        3.96240
 13
        4.57320
 23
        4.57320
 33
        6.70560
999
PERIMETER_MID_ZN_1:PERIMETER_MID_ZN_1_FLOOR
  0
3DFACE
  8
PERIMETER_MID_ZN_1
 62
  8
 10
        0.00000
 20
        0.00000
 30
        3.96240
 11
        4.57320
 21
        4.57320
 31
        3.96240
 12
       45.33750
 22
        4.57320
 32
        3.96240
 13
       49.91100
 23
        0.00000
 33
        3.96240
999
PERIMETER_MID_ZN_1:PERIMETER_MID_ZN_1_CEILING
  0
3DFACE
  8
PERIMETER_MID_ZN_1
 62
 15
 10
       49.91100
 20
        0.00000
 30
        6.70560
 11
       45.33750
 21
        4.57320
 31
        6.70560
 12
        4.57320
 22
        4.57320
 32
        6.70560
 13
        0.00000
 23
        0.00000
 33
        6.70560
999
PERIMETER_MID_ZN_4:PERIMETER_MID_ZN_4_WALL_WEST
  0
3DFACE
  8
PERIMETER_MID_ZN_4
 62
 43
 10
        0.00000
 20
       33.27380
 30
        6.70560
 11
        0.00000
 21
       33.27380
 31
        3.96240
 12
        0.00000
 22
        0.00000
 32
        3.96240
 13
        0.00000
 23
        0.00000
 33
        6.70560
999
PERIMETER_MID_ZN_4:PERIMETER_MID_ZN_4_WALL_WEST_WINDOW
  0
3DFACE
  8
PERIMETER_MID_ZN_4
 62
143
 10
        0.00000
 20
       33.27370
 30
        6.29170
 11
        0.00000
 21
       33.27370
 31
        4.98411
 12
        0.00000
 22
        0.00000
 32
        4.98411
 13
        0.00000
 23
        0.00000
 33
        6.29170
999
PERIMETER_MID_ZN_4:PERIMETER_MID_ZN_4_WALL_SOUTH
  0
3DFACE
  8
PERIMETER_MID_ZN_4
 62
 43
 10
        0.00000
 20
        0.00000
 30
        6.70560
 11
        0.00000
 21
        0.00000
 31
        3.96240
 12
        4.57320
 22
        4.57320
 32
        3.96240
 13
        4.57320
 23
        4.57320
 33
        6.70560
999
PERIMETER_MID_ZN_4:iz-PERIMETER_MID_ZN_3_WALL_WEST
  0
3DFACE
  8
PERIMETER_MID_ZN_4
 62
 43
 10
        4.57320
 20
       28.70060
 30
        6.70560
 11
        4.57320
 21
       28.70060
 31
        3.96240
 12
        0.00000
 22
       33.27380
 32
        3.96240
 13
        0.00000
 23
       33.27380
 33
        6.70560
999
PERIMETER_MID_ZN_4:iz-CORE_MID_ZN_5_WALL_WEST
  0
3DFACE
  8
PERIMETER_MID_ZN_4
 62
 43
 10
        4.57320
 20
        4.57320
 30
        6.70560
 11
        4.57320
 21
        4.57320
 31
        3.96240
 12
        4.57320
 22
       28.70060
 32
        3.96240
 13
        4.57320
 23
       28.70060
 33
        6.70560
999
PERIMETER_MID_ZN_4:PERIMETER_MID_ZN_4_FLOOR
  0
3DFACE
  8
PERIMETER_MID_ZN_4
 62
  8
 10
        0.00000
 20
       33.27380
 30
        3.96240
 11
        4.57320
 21
       28.70060
 31
        3.96240
 12
        4.57320
 22
        4.57320
 32
        3.96240
 13
        0.00000
 23
        0.00000
 33
        3.96240
999
PERIMETER_MID_ZN_4:PERIMETER_MID_ZN_4_CEILING
  0
3DFACE
  8
PERIMETER_MID_ZN_4
 62
 15
 10
        0.00000
 20
        0.00000
 30
        6.70560
 11
        4.57320
 21
        4.57320
 31
        6.70560
 12
        4.57320
 22
       28.70060
 32
        6.70560
 13
        0.00000
 23
       33.27380
 33
        6.70560
999
PERIMETER_TOP_ZN_3:DayRefPt:1
  0
CIRCLE
  8
PERIMETER_TOP_ZN_3
 62
 10
 10
       24.95550
 20
       31.74980
 30
        8.68700
 40
        0.20000
999
PERIMETER_TOP_ZN_3:DayRefPt:2
  0
CIRCLE
  8
PERIMETER_TOP_ZN_3
 62
  5
 10
       24.95550
 20
       30.22580
 30
        8.68700
 40
        0.20000
999
PERIMETER_TOP_ZN_2:DayRefPt:1
  0
CIRCLE
  8
PERIMETER_TOP_ZN_2
 62
 10
 10
       48.38700
 20
       16.63690
 30
        8.68700
 40
        0.20000
999
PERIMETER_TOP_ZN_2:DayRefPt:2
  0
CIRCLE
  8
PERIMETER_TOP_ZN_2
 62
  5
 10
       46.86300
 20
       16.63690
 30
        8.68700
 40
        0.20000
999
PERIMETER_TOP_ZN_1:DayRefPt:1
  0
CIRCLE
  8
PERIMETER_TOP_ZN_1
 62
 10
 10
       24.95550
 20
        1.52400
 30
        8.68700
 40
        0.20000
999
PERIMETER_TOP_ZN_1:DayRefPt:2
  0
CIRCLE
  8
PERIMETER_TOP_ZN_1
 62
  5
 10
       24.95550
 20
        3.04800
 30
        8.68700
 40
        0.20000
999
PERIMETER_TOP_ZN_4:DayRefPt:1
  0
CIRCLE
  8
PERIMETER_TOP_ZN_4
 62
 10
 10
        1.52400
 20
       16.63690
 30
        8.68700
 40
        0.20000
999
PERIMETER_TOP_ZN_4:DayRefPt:2
  0
CIRCLE
  8
PERIMETER_TOP_ZN_4
 62
  5
 10
        3.04800
 20
       16.63690
 30
        8.68700
 40
        0.20000
999
PERIMETER_BOT_ZN_3:DayRefPt:1
  0
CIRCLE
  8
PERIMETER_BOT_ZN_3
 62
 10
 10
       24.95550
 20
       31.74980
 30
        0.76200
 40
        0.20000
999
PERIMETER_BOT_ZN_3:DayRefPt:2
  0
CIRCLE
  8
PERIMETER_BOT_ZN_3
 62
  5
 10
       24.95550
 20
       30.22580
 30
        0.76200
 40
        0.20000
999
PERIMETER_BOT_ZN_2:DayRefPt:1
  0
CIRCLE
  8
PERIMETER_BOT_ZN_2
 62
 10
 10
       48.38700
 20
       16.63690
 30
        0.76200
 40
        0.20000
999
PERIMETER_BOT_ZN_2:DayRefPt:2
  0
CIRCLE
  8
PERIMETER_BOT_ZN_2
 62
  5
 10
       46.86300
 20
       16.63690
 30
        0.76200
 40
        0.20000
999
PERIMETER_BOT_ZN_1:DayRefPt:1
  0
CIRCLE
  8
PERIMETER_BOT_ZN_1
 62
 10
 10
       24.95550
 20
        1.52400
 30
        0.76200
 40
        0.20000
999
PERIMETER_BOT_ZN_1:DayRefPt:2
  0
CIRCLE
  8
PERIMETER_BOT_ZN_1
 62
  5
 10
       24.95550
 20
        3.04800
 30
        0.76200
 40
        0.20000
999
PERIMETER_BOT_ZN_4:DayRefPt:1
  0
CIRCLE
  8
PERIMETER_BOT_ZN_4
 62
 10
 10
        1.52400
 20
       16.63690
 30
        0.76200
 40
        0.20000
999
PERIMETER_BOT_ZN_4:DayRefPt:2
  0
CIRCLE
  8
PERIMETER_BOT_ZN_4
 62
  5
 10
        3.04800
 20
       16.63690
 30
        0.76200
 40
        0.20000
999
PERIMETER_MID_ZN_3:DayRefPt:1
  0
CIRCLE
  8
PERIMETER_MID_ZN_3
 62
 10
 10
       24.95550
 20
       31.74980
 30
        4.72440
 40
        0.20000
999
PERIMETER_MID_ZN_3:DayRefPt:2
  0
CIRCLE
  8
PERIMETER_MID_ZN_3
 62
  5
 10
       24.95550
 20
       30.22580
 30
        4.72440
 40
        0.20000
999
PERIMETER_MID_ZN_2:DayRefPt:1
  0
CIRCLE
  8
PERIMETER_MID_ZN_2
 62
 10
 10
       48.38700
 20
       16.63690
 30
        4.72440
 40
        0.20000
999
PERIMETER_MID_ZN_2:DayRefPt:2
  0
CIRCLE
  8
PERIMETER_MID_ZN_2
 62
  5
 10
       46.86300
 20
       16.63690
 30
        4.72440
 40
        0.20000
999
PERIMETER_MID_ZN_1:DayRefPt:1
  0
CIRCLE
  8
PERIMETER_MID_ZN_1
 62
 10
 10
       24.95550
 20
        1.52400
 30
        4.72440
 40
        0.20000
999
PERIMETER_MID_ZN_1:DayRefPt:2
  0
CIRCLE
  8
PERIMETER_MID_ZN_1
 62
  5
 10
       24.95550
 20
        3.04800
 30
        4.72440
 40
        0.20000
999
PERIMETER_MID_ZN_4:DayRefPt:1
  0
CIRCLE
  8
PERIMETER_MID_ZN_4
 62
 10
 10
        1.52400
 20
       16.63690
 30
        4.72440
 40
        0.20000
999
PERIMETER_MID_ZN_4:DayRefPt:2
  0
CIRCLE
  8
PERIMETER_MID_ZN_4
 62
  5
 10
        3.04800
 20
       16.63690
 30
        4.72440
 40
        0.20000
999
PERIMETER_TOP_ZN_3:DEDayRefPt:1
  0
CIRCLE
  8
PERIMETER_TOP_ZN_3
 62
 10
 10
       24.95550
 20
       31.74980
 30
        8.68700
 40
        0.20000
999
PERIMETER_TOP_ZN_3:DEDayRefPt:2
  0
CIRCLE
  8
PERIMETER_TOP_ZN_3
 62
  5
 10
       24.95550
 20
       30.22580
 30
        8.68700
 40
        0.20000
999
PERIMETER_TOP_ZN_2:DEDayRefPt:1
  0
CIRCLE
  8
PERIMETER_TOP_ZN_2
 62
 10
 10
       48.38700
 20
       16.63690
 30
        8.68700
 40
        0.20000
999
PERIMETER_TOP_ZN_2:DEDayRefPt:2
  0
CIRCLE
  8
PERIMETER_TOP_ZN_2
 62
  5
 10
       46.86300
 20
       16.63690
 30
        8.68700
 40
        0.20000
999
PERIMETER_TOP_ZN_1:DEDayRefPt:1
  0
CIRCLE
  8
PERIMETER_TOP_ZN_1
 62
 10
 10
       24.95550
 20
        1.52400
 30
        8.68700
 40
        0.20000
999
PERIMETER_TOP_ZN_1:DEDayRefPt:2
  0
CIRCLE
  8
PERIMETER_TOP_ZN_1
 62
  5
 10
       24.95550
 20
        3.04800
 30
        8.68700
 40
        0.20000
999
PERIMETER_TOP_ZN_4:DEDayRefPt:1
  0
CIRCLE
  8
PERIMETER_TOP_ZN_4
 62
 10
 10
        1.52400
 20
       16.63690
 30
        8.68700
 40
        0.20000
999
PERIMETER_TOP_ZN_4:DEDayRefPt:2
  0
CIRCLE
  8
PERIMETER_TOP_ZN_4
 62
  5
 10
        3.04800
 20
       16.63690
 30
        8.68700
 40
        0.20000
999
PERIMETER_BOT_ZN_3:DEDayRefPt:1
  0
CIRCLE
  8
PERIMETER_BOT_ZN_3
 62
 10
 10
       24.95550
 20
       31.74980
 30
        0.76200
 40
        0.20000
999
PERIMETER_BOT_ZN_3:DEDayRefPt:2
  0
CIRCLE
  8
PERIMETER_BOT_ZN_3
 62
  5
 10
       24.95550
 20
       30.22580
 30
        0.76200
 40
        0.20000
999
PERIMETER_BOT_ZN_2:DEDayRefPt:1
  0
CIRCLE
  8
PERIMETER_BOT_ZN_2
 62
 10
 10
       48.38700
 20
       16.63690
 30
        0.76200
 40
        0.20000
999
PERIMETER_BOT_ZN_2:DEDayRefPt:2
  0
CIRCLE
  8
PERIMETER_BOT_ZN_2
 62
  5
 10
       46.86300
 20
       16.63690
 30
        0.76200
 40
        0.20000
999
PERIMETER_BOT_ZN_1:DEDayRefPt:1
  0
CIRCLE
  8
PERIMETER_BOT_ZN_1
 62
 10
 10
       24.95550
 20
        1.52400
 30
        0.76200
 40
        0.20000
999
PERIMETER_BOT_ZN_1:DEDayRefPt:2
  0
CIRCLE
  8
PERIMETER_BOT_ZN_1
 62
  5
 10
       24.95550
 20
        3.04800
 30
        0.76200
 40
        0.20000
999
PERIMETER_BOT_ZN_4:DEDayRefPt:1
  0
CIRCLE
  8
PERIMETER_BOT_ZN_4
 62
 10
 10
        1.52400
 20
       16.63690
 30
        0.76200
 40
        0.20000
999
PERIMETER_BOT_ZN_4:DEDayRefPt:2
  0
CIRCLE
  8
PERIMETER_BOT_ZN_4
 62
  5
 10
        3.04800
 20
       16.63690
 30
        0.76200
 40
        0.20000
999
PERIMETER_MID_ZN_3:DEDayRefPt:1
  0
CIRCLE
  8
PERIMETER_MID_ZN_3
 62
 10
 10
       24.95550
 20
       31.74980
 30
        4.72440
 40
        0.20000
999
PERIMETER_MID_ZN_3:DEDayRefPt:2
  0
CIRCLE
  8
PERIMETER_MID_ZN_3
 62
  5
 10
       24.95550
 20
       30.22580
 30
        4.72440
 40
        0.20000
999
PERIMETER_MID_ZN_2:DEDayRefPt:1
  0
CIRCLE
  8
PERIMETER_MID_ZN_2
 62
 10
 10
       48.38700
 20
       16.63690
 30
        4.72440
 40
        0.20000
999
PERIMETER_MID_ZN_2:DEDayRefPt:2
  0
CIRCLE
  8
PERIMETER_MID_ZN_2
 62
  5
 10
       46.86300
 20
       16.63690
 30
        4.72440
 40
        0.20000
999
PERIMETER_MID_ZN_1:DEDayRefPt:1
  0
CIRCLE
  8
PERIMETER_MID_ZN_1
 62
 10
 10
       24.95550
 20
        1.52400
 30
        4.72440
 40
        0.20000
999
PERIMETER_MID_ZN_1:DEDayRefPt:2
  0
CIRCLE
  8
PERIMETER_MID_ZN_1
 62
  5
 10
       24.95550
 20
        3.04800
 30
        4.72440
 40
        0.20000
999
PERIMETER_MID_ZN_4:DEDayRefPt:1
  0
CIRCLE
  8
PERIMETER_MID_ZN_4
 62
 10
 10
        1.52400
 20
       16.63690
 30
        4.72440
 40
        0.20000
999
PERIMETER_MID_ZN_4:DEDayRefPt:2
  0
CIRCLE
  8
PERIMETER_MID_ZN_4
 62
  5
 10
        3.04800
 20
       16.63690
 30
        4.72440
 40
        0.20000
  0
ENDSEC
  0
EOF
